<?xml version="1.0" ?>
  <!DOCTYPE plans SYSTEM "http://www.matsim.org/files/dtd/plans_v4.dtd">
  <plans>
  <!-- ====================================================================== -->
  <person id= "0" >
    <plan selected="yes">
      <act type="home" x="748516.43992" y="5749521.73272" end_time="09:43:00" />
      <leg mode="car" />
      <act type="shops" x="761647.31617" y="5762952.48569" end_time="10:14:00" />
      <leg mode="car" />
      <act type="other" x="733052.04408" y="5756331.45377" end_time="13:04:00" />
      <leg mode="car" />
      <act type="home" x="748516.43992" y="5749521.73272" end_time="15:49:00" />
      <leg mode="car" />
      <act type="work" x="761289.50657" y="5762130.29619" end_time="16:07:00" />
      <leg mode="car" />
      <act type="home" x="748516.43992" y="5749521.73272" />
    </plan>
  </person>
  
  <person id= "1" >
    <plan selected="yes">
      <act type="home" x="778734.79042" y="5745076.17734" end_time="06:59:00" />
      <leg mode="car" />
      <act type="work" x="778791.70915" y="5745372.55639" end_time="14:04:00" />
      <leg mode="car" />
      <act type="shops" x="778433.82508" y="5744429.17115" end_time="16:27:00" />
      <leg mode="car" />
      <act type="home" x="778734.79042" y="5745076.17734" end_time="19:08:00" />
      <leg mode="car" />
      <act type="shops" x="778482.57737" y="5744462.75843" end_time="20:31:00" />
      <leg mode="car" />
      <act type="home" x="778734.79042" y="5745076.17734" />
    </plan>
  </person>
  
  <person id= "2" >
    <plan selected="yes">
      <act type="home" x="777034.92958" y="5743303.37519" end_time="08:38:00" />
      <leg mode="car" />
      <act type="work" x="777196.72455" y="5744398.58775" end_time="15:15:00" />
      <leg mode="car" />
      <act type="beach" x="776580.38162" y="5741915.32936" end_time="17:53:00" />
      <leg mode="car" />
      <act type="home" x="777034.92958" y="5743303.37519" end_time="18:51:00" />
      <leg mode="car" />
      <act type="shops" x="778279.66613" y="5743500.15352" end_time="21:21:00" />
      <leg mode="car" />
      <act type="home" x="777034.92958" y="5743303.37519" end_time="22:15:00" />
      <leg mode="car" />
      <act type="work" x="777196.72455" y="5744398.58775" end_time="23:59:00" />
      <leg mode="car" />
      <act type="home" x="777034.92958" y="5743303.37519" />
    </plan>
  </person>
  
  <person id= "3" >
    <plan selected="yes">
      <act type="home" x="783425.33031" y="5750696.2448" end_time="08:26:00" />
      <leg mode="car" />
      <act type="work" x="790098.62271" y="5754759.19639" end_time="12:44:00" />
      <leg mode="car" />
      <act type="shops" x="778279.66613" y="5743500.15352" end_time="14:57:00" />
      <leg mode="car" />
      <act type="home" x="783425.33031" y="5750696.2448" end_time="17:31:00" />
      <leg mode="car" />
      <act type="work" x="789434.99816" y="5751266.44194" end_time="19:43:00" />
      <leg mode="car" />
      <act type="home" x="783425.33031" y="5750696.2448" end_time="20:33:00" />
      <leg mode="car" />
      <act type="shops" x="777902.25512" y="5762634.6724" end_time="23:55:00" />
      <leg mode="car" />
      <act type="home" x="783425.33031" y="5750696.2448" />
    </plan>
  </person>
  
  <person id= "4" >
    <plan selected="yes">
      <act type="home" x="760003.82761" y="5728798.54737" end_time="11:42:00" />
      <leg mode="car" />
      <act type="other" x="759074.12513" y="5730215.34091" end_time="12:17:00" />
      <leg mode="car" />
      <act type="work" x="760006.41615" y="5728788.01073" end_time="18:30:00" />
      <leg mode="car" />
      <act type="shops" x="759317.42351" y="5729964.86105" end_time="20:29:00" />
      <leg mode="car" />
      <act type="home" x="760003.82761" y="5728798.54737" />
    </plan>
  </person>
  
  <person id= "5" >
    <plan selected="yes">
      <act type="home" x="778011.32591" y="5744510.41182" end_time="08:14:00" />
      <leg mode="car" />
      <act type="work" x="778210.63486" y="5744138.97464" end_time="11:45:00" />
      <leg mode="car" />
      <act type="home" x="778011.32591" y="5744510.41182" end_time="13:52:00" />
      <leg mode="car" />
      <act type="work" x="778649.17232" y="5743860.56825" end_time="17:34:00" />
      <leg mode="car" />
      <act type="home" x="778011.32591" y="5744510.41182" end_time="18:57:00" />
      <leg mode="car" />
      <act type="work" x="778210.63486" y="5744138.97464" end_time="21:01:00" />
      <leg mode="car" />
      <act type="shops" x="778433.82508" y="5744429.17115" end_time="22:02:00" />
      <leg mode="car" />
      <act type="home" x="778011.32591" y="5744510.41182" />
    </plan>
  </person>
  
  <person id= "6" >
    <plan selected="yes">
      <act type="home" x="789433.63469" y="5757450.29064" end_time="08:44:00" />
      <leg mode="car" />
      <act type="other" x="778154.87981" y="5743919.35957" end_time="10:23:00" />
      <leg mode="car" />
      <act type="home" x="789433.63469" y="5757450.29064" end_time="15:50:00" />
      <leg mode="car" />
      <act type="beach" x="788528.10978" y="5750214.98843" end_time="16:28:00" />
      <leg mode="car" />
      <act type="shops" x="790670.88255" y="5752085.50432" end_time="21:06:00" />
      <leg mode="car" />
      <act type="home" x="789433.63469" y="5757450.29064" />
    </plan>
  </person>
  
  <person id= "7" >
    <plan selected="yes">
      <act type="home" x="759320.4418" y="5729460.89279" end_time="13:07:00" />
      <leg mode="car" />
      <act type="work" x="759374.79717" y="5729757.06377" end_time="17:03:00" />
      <leg mode="car" />
      <act type="beach" x="759326.8826" y="5729839.13291" end_time="19:21:00" />
      <leg mode="car" />
      <act type="home" x="759320.4418" y="5729460.89279" end_time="21:13:00" />
      <leg mode="car" />
      <act type="shops" x="759294.96025" y="5730628.35413" end_time="22:52:00" />
      <leg mode="car" />
      <act type="work" x="759310.02792" y="5730461.39643" end_time="23:59:00" />
      <leg mode="car" />
      <act type="home" x="759320.4418" y="5729460.89279" />
    </plan>
  </person>
  
  <person id= "8" >
    <plan selected="yes">
      <act type="home" x="791381.51832" y="5754337.32446" end_time="05:32:00" />
      <leg mode="car" />
      <act type="work" x="790106.78926" y="5751427.52566" end_time="06:09:00" />
      <leg mode="car" />
      <act type="shops" x="789974.17245" y="5752810.54643" end_time="09:23:00" />
      <leg mode="car" />
      <act type="work" x="790484.60538" y="5754857.18225" end_time="11:12:00" />
      <leg mode="car" />
      <act type="shops" x="789902.15203" y="5752276.48654" end_time="15:55:00" />
      <leg mode="car" />
      <act type="beach" x="794242.078" y="5754370.29551" end_time="17:24:00" />
      <leg mode="car" />
      <act type="shops" x="790670.88255" y="5752085.50432" end_time="18:05:00" />
      <leg mode="car" />
      <act type="home" x="791381.51832" y="5754337.32446" end_time="22:37:00" />
      <leg mode="car" />
      <act type="work" x="790484.60538" y="5754857.18225" end_time="23:59:00" />
      <leg mode="car" />
      <act type="home" x="791381.51832" y="5754337.32446" />
    </plan>
  </person>
  
  <person id= "9" >
    <plan selected="yes">
      <act type="home" x="759054.10988" y="5751918.89673" end_time="10:54:00" />
      <leg mode="car" />
      <act type="other" x="778779.70651" y="5745319.61958" end_time="13:15:00" />
      <leg mode="car" />
      <act type="work" x="761289.50657" y="5762130.29619" end_time="16:04:00" />
      <leg mode="car" />
      <act type="home" x="759054.10988" y="5751918.89673" end_time="20:02:00" />
      <leg mode="car" />
      <act type="shops" x="761647.31617" y="5762952.48569" end_time="23:05:00" />
      <leg mode="car" />
      <act type="home" x="759054.10988" y="5751918.89673" />
    </plan>
  </person>
  
  <person id= "10" >
    <plan selected="yes">
      <act type="home" x="777837.33273" y="5743458.02044" end_time="09:48:00" />
      <leg mode="car" />
      <act type="shops" x="778279.66613" y="5743500.15352" end_time="11:26:00" />
      <leg mode="car" />
      <act type="other" x="778154.87981" y="5743919.35957" end_time="12:56:00" />
      <leg mode="car" />
      <act type="work" x="779513.96035" y="5746544.88888" end_time="17:10:00" />
      <leg mode="car" />
      <act type="shops" x="778279.66613" y="5743500.15352" end_time="19:02:00" />
      <leg mode="car" />
      <act type="home" x="777837.33273" y="5743458.02044" />
    </plan>
  </person>
  
  <person id= "11" >
    <plan selected="yes">
      <act type="home" x="768634.59514" y="5737959.73073" end_time="06:03:00" />
      <leg mode="car" />
      <act type="work" x="770405.93026" y="5737998.74274" end_time="10:57:00" />
      <leg mode="car" />
      <act type="home" x="768634.59514" y="5737959.73073" end_time="13:07:00" />
      <leg mode="car" />
      <act type="shops" x="770351.40111" y="5738001.92605" end_time="15:01:00" />
      <leg mode="car" />
      <act type="work" x="770405.93026" y="5737998.74274" end_time="16:55:00" />
      <leg mode="car" />
      <act type="shops" x="770351.40111" y="5738001.92605" end_time="18:36:00" />
      <leg mode="car" />
      <act type="home" x="768634.59514" y="5737959.73073" end_time="21:34:00" />
      <leg mode="car" />
      <act type="shops" x="759317.42351" y="5729964.86105" end_time="23:43:00" />
      <leg mode="car" />
      <act type="home" x="768634.59514" y="5737959.73073" />
    </plan>
  </person>
  
  <person id= "12" >
    <plan selected="yes">
      <act type="home" x="782644.65689" y="5770402.57734" end_time="10:05:00" />
      <leg mode="car" />
      <act type="work" x="786334.34808" y="5764005.76275" end_time="14:14:00" />
      <leg mode="car" />
      <act type="shops" x="789974.17245" y="5752810.54643" end_time="16:53:00" />
      <leg mode="car" />
      <act type="home" x="782644.65689" y="5770402.57734" />
    </plan>
  </person>
  
  <person id= "13" >
    <plan selected="yes">
      <act type="home" x="743743.6944" y="5749879.25249" end_time="09:49:00" />
      <leg mode="car" />
      <act type="work" x="732247.51881" y="5756178.98784" end_time="11:04:00" />
      <leg mode="car" />
      <act type="beach" x="790599.42678" y="5751665.27" end_time="12:09:00" />
      <leg mode="car" />
      <act type="work" x="759175.87554" y="5731742.96741" end_time="14:34:00" />
      <leg mode="car" />
      <act type="beach" x="753128.71399" y="5720791.13233" end_time="17:06:00" />
      <leg mode="car" />
      <act type="work" x="759310.02792" y="5730461.39643" end_time="19:58:00" />
      <leg mode="car" />
      <act type="home" x="743743.6944" y="5749879.25249" />
    </plan>
  </person>
  
  <person id= "14" >
    <plan selected="yes">
      <act type="home" x="777187.97219" y="5743292.75372" end_time="08:06:00" />
      <leg mode="car" />
      <act type="work" x="779012.88562" y="5744520.34118" end_time="12:12:00" />
      <leg mode="car" />
      <act type="beach" x="786985.47082" y="5748372.83646" end_time="14:24:00" />
      <leg mode="car" />
      <act type="other" x="778154.87981" y="5743919.35957" end_time="16:22:00" />
      <leg mode="car" />
      <act type="work" x="778210.63486" y="5744138.97464" end_time="18:53:00" />
      <leg mode="car" />
      <act type="shops" x="778433.82508" y="5744429.17115" end_time="21:29:00" />
      <leg mode="car" />
      <act type="home" x="777187.97219" y="5743292.75372" />
    </plan>
  </person>
  
  <person id= "15" >
    <plan selected="yes">
      <act type="home" x="787732.26408" y="5749845.88297" end_time="12:11:00" />
      <leg mode="car" />
      <act type="other" x="778779.70651" y="5745319.61958" end_time="14:44:00" />
      <leg mode="car" />
      <act type="shops" x="789902.15203" y="5752276.48654" end_time="20:38:00" />
      <leg mode="car" />
      <act type="home" x="787732.26408" y="5749845.88297" end_time="22:30:00" />
      <leg mode="car" />
      <act type="other" x="790829.71368" y="5755284.52525" end_time="23:59:00" />
      <leg mode="car" />
      <act type="home" x="787732.26408" y="5749845.88297" />
    </plan>
  </person>
  
  <person id= "16" >
    <plan selected="yes">
      <act type="home" x="776709.44308" y="5765805.13965" end_time="06:19:00" />
      <leg mode="car" />
      <act type="shops" x="777902.25512" y="5762634.6724" end_time="09:54:00" />
      <leg mode="car" />
      <act type="work" x="778210.63486" y="5744138.97464" end_time="10:39:00" />
      <leg mode="car" />
      <act type="home" x="776709.44308" y="5765805.13965" end_time="12:31:00" />
      <leg mode="car" />
      <act type="shops" x="777902.25512" y="5762634.6724" end_time="14:54:00" />
      <leg mode="car" />
      <act type="work" x="786334.34808" y="5764005.76275" end_time="16:45:00" />
      <leg mode="car" />
      <act type="other" x="777888.65052" y="5762548.96247" end_time="18:44:00" />
      <leg mode="car" />
      <act type="work" x="793641.32026" y="5769328.94189" end_time="21:37:00" />
      <leg mode="car" />
      <act type="home" x="776709.44308" y="5765805.13965" />
    </plan>
  </person>
  
  <person id= "17" >
    <plan selected="yes">
      <act type="home" x="758929.01032" y="5729757.06799" end_time="06:09:00" />
      <leg mode="car" />
      <act type="shops" x="759317.42351" y="5729964.86105" end_time="09:23:00" />
      <leg mode="car" />
      <act type="work" x="758548.82555" y="5729986.72448" end_time="13:03:00" />
      <leg mode="car" />
      <act type="shops" x="759317.42351" y="5729964.86105" end_time="15:10:00" />
      <leg mode="car" />
      <act type="work" x="759223.27599" y="5730566.26203" end_time="21:21:00" />
      <leg mode="car" />
      <act type="home" x="758929.01032" y="5729757.06799" />
    </plan>
  </person>
  
  <person id= "18" >
    <plan selected="yes">
      <act type="home" x="777026.20062" y="5742386.54281" end_time="02:08:00" />
      <leg mode="car" />
      <act type="work" x="778210.63486" y="5744138.97464" end_time="05:46:00" />
      <leg mode="car" />
      <act type="home" x="777026.20062" y="5742386.54281" end_time="07:45:00" />
      <leg mode="car" />
      <act type="work" x="778649.17232" y="5743860.56825" end_time="16:43:00" />
      <leg mode="car" />
      <act type="shops" x="778279.66613" y="5743500.15352" end_time="18:42:00" />
      <leg mode="car" />
      <act type="home" x="777026.20062" y="5742386.54281" />
    </plan>
  </person>
  
  <person id= "19" >
    <plan selected="yes">
      <act type="home" x="785214.61151" y="5752348.59514" end_time="09:07:00" />
      <leg mode="car" />
      <act type="work" x="790106.78926" y="5751427.52566" end_time="10:06:00" />
      <leg mode="car" />
      <act type="other" x="790829.71368" y="5755284.52525" end_time="13:21:00" />
      <leg mode="car" />
      <act type="work" x="789434.99816" y="5751266.44194" end_time="20:45:00" />
      <leg mode="car" />
      <act type="home" x="785214.61151" y="5752348.59514" />
    </plan>
  </person>
  
  <person id= "20" >
    <plan selected="yes">
      <act type="home" x="758838.77263" y="5730582.04375" end_time="04:16:00" />
      <leg mode="car" />
      <act type="work" x="760128.0835" y="5729217.22829" end_time="07:48:00" />
      <leg mode="car" />
      <act type="home" x="758838.77263" y="5730582.04375" end_time="11:49:00" />
      <leg mode="car" />
      <act type="work" x="759374.79717" y="5729757.06377" end_time="15:12:00" />
      <leg mode="car" />
      <act type="beach" x="759326.8826" y="5729839.13291" end_time="16:44:00" />
      <leg mode="car" />
      <act type="other" x="759210.79384" y="5730135.73036" end_time="18:25:00" />
      <leg mode="car" />
      <act type="home" x="758838.77263" y="5730582.04375" />
    </plan>
  </person>
  
  <person id= "21" >
    <plan selected="yes">
      <act type="home" x="786410.44631" y="5751655.14627" end_time="07:25:00" />
      <leg mode="car" />
      <act type="work" x="778791.70915" y="5745372.55639" end_time="09:43:00" />
      <leg mode="car" />
      <act type="home" x="786410.44631" y="5751655.14627" end_time="10:33:00" />
      <leg mode="car" />
      <act type="work" x="779513.96035" y="5746544.88888" end_time="12:38:00" />
      <leg mode="car" />
      <act type="home" x="786410.44631" y="5751655.14627" end_time="14:54:00" />
      <leg mode="car" />
      <act type="work" x="793249.38427" y="5770567.6814" end_time="18:48:00" />
      <leg mode="car" />
      <act type="shops" x="790505.64718" y="5752116.69154" end_time="21:59:00" />
      <leg mode="car" />
      <act type="home" x="786410.44631" y="5751655.14627" />
    </plan>
  </person>
  
  <person id= "22" >
    <plan selected="yes">
      <act type="home" x="762308.30004" y="5753581.56405" end_time="08:16:00" />
      <leg mode="car" />
      <act type="work" x="789434.99816" y="5751266.44194" end_time="11:16:00" />
      <leg mode="car" />
      <act type="home" x="762308.30004" y="5753581.56405" end_time="12:24:00" />
      <leg mode="car" />
      <act type="shops" x="759317.42351" y="5729964.86105" end_time="17:33:00" />
      <leg mode="car" />
      <act type="home" x="762308.30004" y="5753581.56405" end_time="21:21:00" />
      <leg mode="car" />
      <act type="work" x="771154.38036" y="5738979.16897" end_time="22:13:00" />
      <leg mode="car" />
      <act type="home" x="762308.30004" y="5753581.56405" />
    </plan>
  </person>
  
  <person id= "23" >
    <plan selected="yes">
      <act type="home" x="764033.7894" y="5758681.05347" end_time="00:01:00" />
      <leg mode="car" />
      <act type="other" x="793534.67335" y="5769831.90665" end_time="02:32:00" />
      <leg mode="car" />
      <act type="home" x="764033.7894" y="5758681.05347" end_time="07:46:00" />
      <leg mode="car" />
      <act type="shops" x="761647.31617" y="5762952.48569" end_time="09:52:00" />
      <leg mode="car" />
      <act type="work" x="779012.88562" y="5744520.34118" end_time="18:47:00" />
      <leg mode="car" />
      <act type="shops" x="761647.31617" y="5762952.48569" end_time="20:36:00" />
      <leg mode="car" />
      <act type="home" x="764033.7894" y="5758681.05347" end_time="23:57:00" />
      <leg mode="car" />
      <act type="work" x="761856.89786" y="5763333.34179" end_time="23:59:00" />
      <leg mode="car" />
      <act type="home" x="764033.7894" y="5758681.05347" />
    </plan>
  </person>
  
  <person id= "24" >
    <plan selected="yes">
      <act type="home" x="771492.67893" y="5738760.13657" end_time="04:55:00" />
      <leg mode="car" />
      <act type="work" x="771120.82582" y="5738818.00056" end_time="07:27:00" />
      <leg mode="car" />
      <act type="home" x="771492.67893" y="5738760.13657" end_time="10:24:00" />
      <leg mode="car" />
      <act type="work" x="771120.82582" y="5738818.00056" end_time="17:23:00" />
      <leg mode="car" />
      <act type="home" x="771492.67893" y="5738760.13657" end_time="18:37:00" />
      <leg mode="car" />
      <act type="work" x="771154.38036" y="5738979.16897" end_time="21:50:00" />
      <leg mode="car" />
      <act type="shops" x="770351.40111" y="5738001.92605" end_time="22:13:00" />
      <leg mode="car" />
      <act type="home" x="771492.67893" y="5738760.13657" />
    </plan>
  </person>
  
  <person id= "25" >
    <plan selected="yes">
      <act type="home" x="759080.73696" y="5730321.18833" end_time="06:12:00" />
      <leg mode="car" />
      <act type="work" x="759163.59908" y="5730338.60707" end_time="17:34:00" />
      <leg mode="car" />
      <act type="shops" x="759294.96025" y="5730628.35413" end_time="20:57:00" />
      <leg mode="car" />
      <act type="home" x="759080.73696" y="5730321.18833" />
    </plan>
  </person>
  
  <person id= "26" >
    <plan selected="yes">
      <act type="home" x="772617.82636" y="5785458.8966" end_time="00:01:00" />
      <leg mode="car" />
      <act type="other" x="792803.19879" y="5769441.31381" end_time="02:40:00" />
      <leg mode="car" />
      <act type="home" x="772617.82636" y="5785458.8966" end_time="09:11:00" />
      <leg mode="car" />
      <act type="work" x="761289.50657" y="5762130.29619" end_time="10:42:00" />
      <leg mode="car" />
      <act type="home" x="772617.82636" y="5785458.8966" end_time="13:10:00" />
      <leg mode="car" />
      <act type="shops" x="789974.17245" y="5752810.54643" end_time="17:30:00" />
      <leg mode="car" />
      <act type="work" x="759175.87554" y="5731742.96741" end_time="20:29:00" />
      <leg mode="car" />
      <act type="home" x="772617.82636" y="5785458.8966" end_time="22:49:00" />
      <leg mode="car" />
      <act type="other" x="793534.67335" y="5769831.90665" end_time="23:59:00" />
      <leg mode="car" />
      <act type="home" x="772617.82636" y="5785458.8966" />
    </plan>
  </person>
  
  <person id= "27" >
    <plan selected="yes">
      <act type="home" x="771567.16183" y="5740494.80258" end_time="08:59:00" />
      <leg mode="car" />
      <act type="work" x="770968.05532" y="5738364.60103" end_time="19:27:00" />
      <leg mode="car" />
      <act type="other" x="771374.44073" y="5738835.66619" end_time="20:34:00" />
      <leg mode="car" />
      <act type="home" x="771567.16183" y="5740494.80258" />
    </plan>
  </person>
  
  <person id= "28" >
    <plan selected="yes">
      <act type="home" x="777281.57391" y="5744336.0052" end_time="02:51:00" />
      <leg mode="car" />
      <act type="work" x="777196.72455" y="5744398.58775" end_time="07:40:00" />
      <leg mode="car" />
      <act type="home" x="777281.57391" y="5744336.0052" end_time="09:14:00" />
      <leg mode="car" />
      <act type="work" x="777196.72455" y="5744398.58775" end_time="10:58:00" />
      <leg mode="car" />
      <act type="home" x="777281.57391" y="5744336.0052" end_time="12:28:00" />
      <leg mode="car" />
      <act type="work" x="777196.72455" y="5744398.58775" end_time="14:52:00" />
      <leg mode="car" />
      <act type="beach" x="778237.06886" y="5743964.79164" end_time="16:56:00" />
      <leg mode="car" />
      <act type="home" x="777281.57391" y="5744336.0052" />
    </plan>
  </person>
  
  <person id= "29" >
    <plan selected="yes">
      <act type="home" x="756472.19695" y="5758720.81804" end_time="07:21:00" />
      <leg mode="car" />
      <act type="shops" x="770351.40111" y="5738001.92605" end_time="09:44:00" />
      <leg mode="car" />
      <act type="work" x="756924.90574" y="5726253.79922" end_time="16:54:00" />
      <leg mode="car" />
      <act type="home" x="756472.19695" y="5758720.81804" end_time="19:02:00" />
      <leg mode="car" />
      <act type="work" x="761289.50657" y="5762130.29619" end_time="20:58:00" />
      <leg mode="car" />
      <act type="home" x="756472.19695" y="5758720.81804" />
    </plan>
  </person>
  
  <person id= "30" >
    <plan selected="yes">
      <act type="home" x="779042.99134" y="5744590.90353" end_time="03:52:00" />
      <leg mode="car" />
      <act type="work" x="779012.88562" y="5744520.34118" end_time="04:06:00" />
      <leg mode="car" />
      <act type="home" x="779042.99134" y="5744590.90353" end_time="07:58:00" />
      <leg mode="car" />
      <act type="work" x="779012.88562" y="5744520.34118" end_time="17:14:00" />
      <leg mode="car" />
      <act type="shops" x="778482.57737" y="5744462.75843" end_time="19:30:00" />
      <leg mode="car" />
      <act type="home" x="779042.99134" y="5744590.90353" />
    </plan>
  </person>
  
  <person id= "31" >
    <plan selected="yes">
      <act type="home" x="777201.16513" y="5743148.09301" end_time="00:01:00" />
      <leg mode="car" />
      <act type="other" x="778154.87981" y="5743919.35957" end_time="03:06:00" />
      <leg mode="car" />
      <act type="home" x="777201.16513" y="5743148.09301" end_time="10:19:00" />
      <leg mode="car" />
      <act type="work" x="778463.2759" y="5744455.4553" end_time="13:53:00" />
      <leg mode="car" />
      <act type="home" x="777201.16513" y="5743148.09301" end_time="15:20:00" />
      <leg mode="car" />
      <act type="work" x="778463.2759" y="5744455.4553" end_time="18:53:00" />
      <leg mode="car" />
      <act type="shops" x="778482.57737" y="5744462.75843" end_time="20:59:00" />
      <leg mode="car" />
      <act type="home" x="777201.16513" y="5743148.09301" />
    </plan>
  </person>
  
  <person id= "32" >
    <plan selected="yes">
      <act type="home" x="747929.40958" y="5756168.60637" end_time="11:32:00" />
      <leg mode="car" />
      <act type="work" x="730692.55336" y="5755530.02771" end_time="15:51:00" />
      <leg mode="car" />
      <act type="shops" x="743497.21054" y="5753100.09307" end_time="17:45:00" />
      <leg mode="car" />
      <act type="home" x="747929.40958" y="5756168.60637" />
    </plan>
  </person>
  
  <person id= "33" >
    <plan selected="yes">
      <act type="home" x="765650.43488" y="5753930.57744" end_time="09:42:00" />
      <leg mode="car" />
      <act type="work" x="761856.89786" y="5763333.34179" end_time="17:58:00" />
      <leg mode="car" />
      <act type="home" x="765650.43488" y="5753930.57744" />
    </plan>
  </person>
  
  <person id= "34" >
    <plan selected="yes">
      <act type="home" x="801871.63378" y="5757751.52857" end_time="00:01:00" />
      <leg mode="car" />
      <act type="other" x="792837.45553" y="5769972.52889" end_time="03:33:00" />
      <leg mode="car" />
      <act type="home" x="801871.63378" y="5757751.52857" end_time="04:25:00" />
      <leg mode="car" />
      <act type="work" x="789848.05453" y="5752795.44381" end_time="07:47:00" />
      <leg mode="car" />
      <act type="home" x="801871.63378" y="5757751.52857" end_time="08:51:00" />
      <leg mode="car" />
      <act type="shops" x="789902.15203" y="5752276.48654" end_time="10:30:00" />
      <leg mode="car" />
      <act type="home" x="801871.63378" y="5757751.52857" end_time="13:43:00" />
      <leg mode="car" />
      <act type="work" x="779012.88562" y="5744520.34118" end_time="14:46:00" />
      <leg mode="car" />
      <act type="shops" x="789902.15203" y="5752276.48654" end_time="20:19:00" />
      <leg mode="car" />
      <act type="home" x="801871.63378" y="5757751.52857" />
    </plan>
  </person>
  
  <person id= "35" >
    <plan selected="yes">
      <act type="home" x="777754.4116" y="5743648.96788" end_time="10:10:00" />
      <leg mode="car" />
      <act type="work" x="777704.05806" y="5743980.73808" end_time="13:20:00" />
      <leg mode="car" />
      <act type="beach" x="778237.06886" y="5743964.79164" end_time="17:59:00" />
      <leg mode="car" />
      <act type="work" x="778210.63486" y="5744138.97464" end_time="18:24:00" />
      <leg mode="car" />
      <act type="home" x="777754.4116" y="5743648.96788" />
    </plan>
  </person>
  
  <person id= "36" >
    <plan selected="yes">
      <act type="home" x="777089.45703" y="5744530.14634" end_time="09:37:00" />
      <leg mode="car" />
      <act type="work" x="777196.72455" y="5744398.58775" end_time="11:25:00" />
      <leg mode="car" />
      <act type="other" x="771374.44073" y="5738835.66619" end_time="13:07:00" />
      <leg mode="car" />
      <act type="work" x="777196.72455" y="5744398.58775" end_time="15:24:00" />
      <leg mode="car" />
      <act type="shops" x="778482.57737" y="5744462.75843" end_time="17:06:00" />
      <leg mode="car" />
      <act type="other" x="778154.87981" y="5743919.35957" end_time="19:22:00" />
      <leg mode="car" />
      <act type="work" x="778463.2759" y="5744455.4553" end_time="21:53:00" />
      <leg mode="car" />
      <act type="home" x="777089.45703" y="5744530.14634" />
    </plan>
  </person>
  
  <person id= "37" >
    <plan selected="yes">
      <act type="home" x="789016.7366" y="5750696.19489" end_time="06:55:00" />
      <leg mode="car" />
      <act type="work" x="777196.72455" y="5744398.58775" end_time="09:25:00" />
      <leg mode="car" />
      <act type="home" x="789016.7366" y="5750696.19489" end_time="11:45:00" />
      <leg mode="car" />
      <act type="work" x="789434.99816" y="5751266.44194" end_time="12:19:00" />
      <leg mode="car" />
      <act type="beach" x="789125.65437" y="5750638.52234" end_time="15:36:00" />
      <leg mode="car" />
      <act type="shops" x="789974.17245" y="5752810.54643" end_time="16:13:00" />
      <leg mode="car" />
      <act type="home" x="789016.7366" y="5750696.19489" end_time="18:56:00" />
      <leg mode="car" />
      <act type="work" x="789434.99816" y="5751266.44194" end_time="20:52:00" />
      <leg mode="car" />
      <act type="home" x="789016.7366" y="5750696.19489" />
    </plan>
  </person>
  
  <person id= "38" >
    <plan selected="yes">
      <act type="home" x="770811.32212" y="5738891.55042" end_time="09:34:00" />
      <leg mode="car" />
      <act type="shops" x="770351.40111" y="5738001.92605" end_time="10:07:00" />
      <leg mode="car" />
      <act type="beach" x="776580.38162" y="5741915.32936" end_time="12:45:00" />
      <leg mode="car" />
      <act type="work" x="770968.05532" y="5738364.60103" end_time="16:06:00" />
      <leg mode="car" />
      <act type="home" x="770811.32212" y="5738891.55042" end_time="18:24:00" />
      <leg mode="car" />
      <act type="work" x="771120.82582" y="5738818.00056" end_time="20:20:00" />
      <leg mode="car" />
      <act type="home" x="770811.32212" y="5738891.55042" />
    </plan>
  </person>
  
  <person id= "39" >
    <plan selected="yes">
      <act type="home" x="787732.26408" y="5749845.88297" end_time="06:55:00" />
      <leg mode="car" />
      <act type="work" x="790106.78926" y="5751427.52566" end_time="10:35:00" />
      <leg mode="car" />
      <act type="home" x="787732.26408" y="5749845.88297" end_time="13:01:00" />
      <leg mode="car" />
      <act type="work" x="790106.78926" y="5751427.52566" end_time="14:13:00" />