<?xml version="1.0" ?>
  <!DOCTYPE plans SYSTEM "http://www.matsim.org/files/dtd/plans_v4.dtd">
  <plans>
  <!-- ====================================================================== -->
  <person id= "0" >
    <attributes>
      <attribute name="BDIAgentType" class="java.lang.String" >io.github.agentsoz.ees.agents.Resident</attribute>
    </attributes>
    <plan selected="yes">
      <act type="home" x="776998.65426" y="5742753.99225" end_time="04:22:00" />
      <leg mode="car" />
      <act type="work" x="777196.72455" y="5744398.58775" end_time="16:43:00" />
      <leg mode="car" />
      <act type="shops" x="778482.57737" y="5744462.75843" end_time="19:35:00" />
      <leg mode="car" />
      <act type="home" x="776998.65426" y="5742753.99225" />
    </plan>
  </person>
  
  <person id= "1" >
    <attributes>
      <attribute name="BDIAgentType" class="java.lang.String" >io.github.agentsoz.ees.agents.Resident</attribute>
    </attributes>
    <plan selected="yes">
      <act type="home" x="746928.28977" y="5752889.12759" end_time="09:52:00" />
      <leg mode="car" />
      <act type="work" x="759492.64698" y="5730627.75413" end_time="16:40:00" />
      <leg mode="car" />
      <act type="home" x="746928.28977" y="5752889.12759" end_time="19:35:00" />
      <leg mode="car" />
      <act type="other" x="777888.65052" y="5762548.96247" end_time="23:59:00" />
      <leg mode="car" />
      <act type="home" x="746928.28977" y="5752889.12759" />
    </plan>
  </person>
  
  <person id= "2" >
    <attributes>
      <attribute name="BDIAgentType" class="java.lang.String" >io.github.agentsoz.ees.agents.Resident</attribute>
    </attributes>
    <plan selected="yes">
      <act type="home" x="748516.43992" y="5749521.73272" end_time="08:18:00" />
      <leg mode="car" />
      <act type="beach" x="794242.078" y="5754370.29551" end_time="11:22:00" />
      <leg mode="car" />
      <act type="work" x="730692.55336" y="5755530.02771" end_time="19:54:00" />
      <leg mode="car" />
      <act type="home" x="748516.43992" y="5749521.73272" />
    </plan>
  </person>
  
  <person id= "3" >
    <attributes>
      <attribute name="BDIAgentType" class="java.lang.String" >io.github.agentsoz.ees.agents.Resident</attribute>
    </attributes>
    <plan selected="yes">
      <act type="home" x="792296.74816" y="5753822.6006" end_time="13:14:00" />
      <leg mode="car" />
      <act type="shops" x="790357.10312" y="5752184.65303" end_time="17:47:00" />
      <leg mode="car" />
      <act type="home" x="792296.74816" y="5753822.6006" />
    </plan>
  </person>
  
  <person id= "4" >
    <attributes>
      <attribute name="BDIAgentType" class="java.lang.String" >io.github.agentsoz.ees.agents.Resident</attribute>
    </attributes>
    <plan selected="yes">
      <act type="home" x="762070.01485" y="5763709.90506" end_time="09:00:00" />
      <leg mode="car" />
      <act type="other" x="733052.04408" y="5756331.45377" end_time="10:28:00" />
      <leg mode="car" />
      <act type="home" x="762070.01485" y="5763709.90506" end_time="12:08:00" />
      <leg mode="car" />
      <act type="work" x="761856.89786" y="5763333.34179" end_time="16:11:00" />
      <leg mode="car" />
      <act type="shops" x="761647.31617" y="5762952.48569" end_time="19:09:00" />
      <leg mode="car" />
      <act type="home" x="762070.01485" y="5763709.90506" end_time="20:34:00" />
      <leg mode="car" />
      <act type="other" x="793534.67335" y="5769831.90665" end_time="22:22:00" />
      <leg mode="car" />
      <act type="home" x="762070.01485" y="5763709.90506" />
    </plan>
  </person>
  
  <person id= "5" >
    <attributes>
      <attribute name="BDIAgentType" class="java.lang.String" >io.github.agentsoz.ees.agents.Resident</attribute>
    </attributes>
    <plan selected="yes">
      <act type="home" x="773846.57854" y="5754098.17956" end_time="08:13:00" />
      <leg mode="car" />
      <act type="work" x="786334.34808" y="5764005.76275" end_time="16:54:00" />
      <leg mode="car" />
      <act type="home" x="773846.57854" y="5754098.17956" />
    </plan>
  </person>
  
  <person id= "6" >
    <attributes>
      <attribute name="BDIAgentType" class="java.lang.String" >io.github.agentsoz.ees.agents.Resident</attribute>
    </attributes>
    <plan selected="yes">
      <act type="home" x="787120.50826" y="5750731.62448" end_time="08:51:00" />
      <leg mode="car" />
      <act type="work" x="777704.05806" y="5743980.73808" end_time="21:46:00" />
      <leg mode="car" />
      <act type="home" x="787120.50826" y="5750731.62448" />
    </plan>
  </person>
  
  <person id= "7" >
    <attributes>
      <attribute name="BDIAgentType" class="java.lang.String" >io.github.agentsoz.ees.agents.Resident</attribute>
    </attributes>
    <plan selected="yes">
      <act type="home" x="770566.14046" y="5778962.92115" end_time="09:55:00" />
      <leg mode="car" />
      <act type="work" x="793641.32026" y="5769328.94189" end_time="17:20:00" />
      <leg mode="car" />
      <act type="home" x="770566.14046" y="5778962.92115" />
    </plan>
  </person>
  
  <person id= "8" >
    <attributes>
      <attribute name="BDIAgentType" class="java.lang.String" >io.github.agentsoz.ees.agents.Resident</attribute>
    </attributes>
    <plan selected="yes">
      <act type="home" x="759055.32694" y="5729950.41342" end_time="09:26:00" />
      <leg mode="car" />
      <act type="work" x="759353.31074" y="5729787.17382" end_time="20:19:00" />
      <leg mode="car" />
      <act type="home" x="759055.32694" y="5729950.41342" />
    </plan>
  </person>
  
  <person id= "9" >
    <attributes>
      <attribute name="BDIAgentType" class="java.lang.String" >io.github.agentsoz.ees.agents.Resident</attribute>
    </attributes>
    <plan selected="yes">
      <act type="home" x="776709.44308" y="5765805.13965" end_time="07:10:00" />
      <leg mode="car" />
      <act type="other" x="777888.65052" y="5762548.96247" end_time="08:48:00" />
      <leg mode="car" />
      <act type="work" x="786334.34808" y="5764005.76275" end_time="13:08:00" />
      <leg mode="car" />
      <act type="beach" x="777498.11629" y="5741920.33946" end_time="15:15:00" />
      <leg mode="car" />
      <act type="other" x="777888.65052" y="5762548.96247" end_time="19:57:00" />
      <leg mode="car" />
      <act type="home" x="776709.44308" y="5765805.13965" end_time="20:32:00" />
      <leg mode="car" />
      <act type="other" x="759074.12513" y="5730215.34091" end_time="23:11:00" />
      <leg mode="car" />
      <act type="home" x="776709.44308" y="5765805.13965" />
    </plan>
  </person>
  
  <person id= "10" >
    <attributes>
      <attribute name="BDIAgentType" class="java.lang.String" >io.github.agentsoz.ees.agents.Part_time_Resident</attribute>
    </attributes>
    <plan selected="yes">
      <act type="home" x="771217.13998" y="5738557.68968" end_time="08:21:00" />
      <leg mode="car" />
      <act type="other" x="771374.44073" y="5738835.66619" end_time="10:41:00" />
      <leg mode="car" />
      <act type="home" x="771217.13998" y="5738557.68968" end_time="13:21:00" />
      <leg mode="car" />
      <act type="shops" x="770351.40111" y="5738001.92605" end_time="15:48:00" />
      <leg mode="car" />
      <act type="other" x="771374.44073" y="5738835.66619" end_time="16:06:00" />
      <leg mode="car" />
      <act type="shops" x="770351.40111" y="5738001.92605" end_time="18:10:00" />
      <leg mode="car" />
      <act type="home" x="771217.13998" y="5738557.68968" />
    </plan>
  </person>
  
  <person id= "11" >
    <attributes>
      <attribute name="BDIAgentType" class="java.lang.String" >io.github.agentsoz.ees.agents.Part_time_Resident</attribute>
    </attributes>
    <plan selected="yes">
      <act type="home" x="776787.79156" y="5742055.0471" end_time="10:47:00" />
      <leg mode="car" />
      <act type="shops" x="778482.57737" y="5744462.75843" end_time="12:10:00" />
      <leg mode="car" />
      <act type="beach" x="776580.38162" y="5741915.32936" end_time="14:52:00" />
      <leg mode="car" />
      <act type="work" x="777704.05806" y="5743980.73808" end_time="23:45:00" />
      <leg mode="car" />
      <act type="home" x="776787.79156" y="5742055.0471" />
    </plan>
  </person>
  
  <person id= "12" >
    <attributes>
      <attribute name="BDIAgentType" class="java.lang.String" >io.github.agentsoz.ees.agents.Part_time_Resident</attribute>
    </attributes>
    <plan selected="yes">
      <act type="home" x="785995.93899" y="5757567.46533" end_time="09:25:00" />
      <leg mode="car" />
      <act type="other" x="778779.70651" y="5745319.61958" end_time="11:14:00" />
      <leg mode="car" />
      <act type="work" x="790098.62271" y="5754759.19639" end_time="18:39:00" />
      <leg mode="car" />
      <act type="home" x="785995.93899" y="5757567.46533" />
    </plan>
  </person>
  
  <person id= "13" >
    <attributes>
      <attribute name="BDIAgentType" class="java.lang.String" >io.github.agentsoz.ees.agents.Part_time_Resident</attribute>
    </attributes>
    <plan selected="yes">
      <act type="home" x="788027.29114" y="5750472.5249" end_time="08:45:00" />
      <leg mode="car" />
      <act type="beach" x="788528.10978" y="5750214.98843" end_time="11:13:00" />
      <leg mode="car" />
      <act type="home" x="788027.29114" y="5750472.5249" end_time="12:28:00" />
      <leg mode="car" />
      <act type="other" x="789863.66729" y="5753170.47836" end_time="15:49:00" />
      <leg mode="car" />
      <act type="shops" x="790505.64718" y="5752116.69154" end_time="17:14:00" />
      <leg mode="car" />
      <act type="beach" x="788528.10978" y="5750214.98843" end_time="19:45:00" />
      <leg mode="car" />
      <act type="home" x="788027.29114" y="5750472.5249" />
    </plan>
  </person>
  
  <person id= "14" >
    <attributes>
      <attribute name="BDIAgentType" class="java.lang.String" >io.github.agentsoz.ees.agents.Part_time_Resident</attribute>
    </attributes>
    <plan selected="yes">
      <act type="home" x="790830.75512" y="5752878.3643" end_time="08:14:00" />
      <leg mode="car" />
      <act type="beach" x="790861.74053" y="5752552.89152" end_time="14:15:00" />
      <leg mode="car" />
      <act type="work" x="789848.05453" y="5752795.44381" end_time="18:07:00" />
      <leg mode="car" />
      <act type="home" x="790830.75512" y="5752878.3643" end_time="21:19:00" />
      <leg mode="car" />
      <act type="other" x="789863.66729" y="5753170.47836" end_time="22:39:00" />
      <leg mode="car" />
      <act type="shops" x="789974.17245" y="5752810.54643" end_time="23:59:00" />
      <leg mode="car" />
      <act type="home" x="790830.75512" y="5752878.3643" />
    </plan>
  </person>
  
  <person id= "15" >
    <attributes>
      <attribute name="BDIAgentType" class="java.lang.String" >io.github.agentsoz.ees.agents.Part_time_Resident</attribute>
    </attributes>
    <plan selected="yes">
      <act type="home" x="790334.82402" y="5752066.1089" end_time="13:10:00" />
      <leg mode="car" />
      <act type="other" x="789863.66729" y="5753170.47836" end_time="15:25:00" />
      <leg mode="car" />
      <act type="work" x="789848.05453" y="5752795.44381" end_time="18:17:00" />
      <leg mode="car" />
      <act type="home" x="790334.82402" y="5752066.1089" />
    </plan>
  </person>
  
  <person id= "16" >
    <attributes>
      <attribute name="BDIAgentType" class="java.lang.String" >io.github.agentsoz.ees.agents.Part_time_Resident</attribute>
    </attributes>
    <plan selected="yes">
      <act type="home" x="768634.59514" y="5737959.73073" end_time="07:25:00" />
      <leg mode="car" />
      <act type="work" x="778649.17232" y="5743860.56825" end_time="19:03:00" />
      <leg mode="car" />
      <act type="home" x="768634.59514" y="5737959.73073" />
    </plan>
  </person>
  
  <person id= "17" >
    <attributes>
      <attribute name="BDIAgentType" class="java.lang.String" >io.github.agentsoz.ees.agents.Part_time_Resident</attribute>
    </attributes>
    <plan selected="yes">
      <act type="home" x="760058.11638" y="5729084.66199" end_time="13:02:00" />
      <leg mode="car" />
      <act type="shops" x="759317.42351" y="5729964.86105" end_time="15:37:00" />
      <leg mode="car" />
      <act type="beach" x="759326.8826" y="5729839.13291" end_time="17:48:00" />
      <leg mode="car" />
      <act type="home" x="760058.11638" y="5729084.66199" end_time="21:19:00" />
      <leg mode="car" />
      <act type="shops" x="759294.96025" y="5730628.35413" end_time="22:04:00" />
      <leg mode="car" />
      <act type="home" x="760058.11638" y="5729084.66199" />
    </plan>
  </person>
  
  <person id= "18" >
    <attributes>
      <attribute name="BDIAgentType" class="java.lang.String" >io.github.agentsoz.ees.agents.Part_time_Resident</attribute>
    </attributes>
    <plan selected="yes">
      <act type="home" x="789016.7366" y="5750696.19489" end_time="10:43:00" />
      <leg mode="car" />
      <act type="beach" x="789125.65437" y="5750638.52234" end_time="13:42:00" />
      <leg mode="car" />
      <act type="shops" x="790357.10312" y="5752184.65303" end_time="14:56:00" />
      <leg mode="car" />
      <act type="other" x="789863.66729" y="5753170.47836" end_time="17:27:00" />
      <leg mode="car" />
      <act type="shops" x="790670.88255" y="5752085.50432" end_time="18:18:00" />
      <leg mode="car" />
      <act type="home" x="789016.7366" y="5750696.19489" />
    </plan>
  </person>
  
  <person id= "19" >
    <attributes>
      <attribute name="BDIAgentType" class="java.lang.String" >io.github.agentsoz.ees.agents.Part_time_Resident</attribute>
    </attributes>
    <plan selected="yes">
      <act type="home" x="776934.37972" y="5759151.04494" end_time="08:59:00" />
      <leg mode="car" />
      <act type="beach" x="788528.10978" y="5750214.98843" end_time="13:32:00" />
      <leg mode="car" />
      <act type="shops" x="777902.25512" y="5762634.6724" end_time="14:18:00" />
      <leg mode="car" />
      <act type="work" x="778791.70915" y="5745372.55639" end_time="18:16:00" />
      <leg mode="car" />
      <act type="shops" x="778433.82508" y="5744429.17115" end_time="21:09:00" />
      <leg mode="car" />
      <act type="home" x="776934.37972" y="5759151.04494" end_time="22:42:00" />
      <leg mode="car" />
      <act type="other" x="778779.70651" y="5745319.61958" end_time="23:59:00" />
      <leg mode="car" />
      <act type="home" x="776934.37972" y="5759151.04494" />
    </plan>
  </person>
  
  <person id= "20" >
    <attributes>
      <attribute name="BDIAgentType" class="java.lang.String" >io.github.agentsoz.ees.agents.Overnight_Visitor</attribute>
    </attributes>
    <plan selected="yes">
      <act type="home" x="789434.99816" y="5751266.44194" end_time="07:56:00" />
      <leg mode="car" />
      <act type="other" x="778507.88547" y="5744455.63954" end_time="09:12:00" />
      <leg mode="car" />
      <act type="shops" x="790357.10312" y="5752184.65303" end_time="15:13:00" />
      <leg mode="car" />
      <act type="beach" x="789125.65437" y="5750638.52234" end_time="17:24:00" />
      <leg mode="car" />
      <act type="other" x="767533.87321" y="5747333.10942" end_time="21:29:00" />
      <leg mode="car" />
      <act type="shops" x="789974.17245" y="5752810.54643" end_time="22:54:00" />
      <leg mode="car" />
      <act type="home" x="789434.99816" y="5751266.44194" />
    </plan>
  </person>
  
  <person id= "21" >
    <attributes>
      <attribute name="BDIAgentType" class="java.lang.String" >io.github.agentsoz.ees.agents.Overnight_Visitor</attribute>
    </attributes>
    <plan selected="yes">
      <act type="home" x="777704.05806" y="5743980.73808" end_time="00:01:00" />
      <leg mode="car" />
      <act type="shops" x="778279.66613" y="5743500.15352" end_time="02:48:00" />
      <leg mode="car" />
      <act type="home" x="777704.05806" y="5743980.73808" end_time="06:26:00" />
      <leg mode="car" />
      <act type="other" x="777412.78017" y="5744008.09442" end_time="11:42:00" />
      <leg mode="car" />
      <act type="beach" x="778406.90316" y="5743587.79637" end_time="13:59:00" />
      <leg mode="car" />
      <act type="shops" x="778433.82508" y="5744429.17115" end_time="15:46:00" />
      <leg mode="car" />
      <act type="beach" x="783893.9946" y="5745788.90364" end_time="18:14:00" />
      <leg mode="car" />
      <act type="shops" x="778482.57737" y="5744462.75843" end_time="21:37:00" />
      <leg mode="car" />
      <act type="home" x="777704.05806" y="5743980.73808" />
    </plan>
  </person>
  
  <person id= "22" >
    <attributes>
      <attribute name="BDIAgentType" class="java.lang.String" >io.github.agentsoz.ees.agents.Overnight_Visitor</attribute>
    </attributes>
    <plan selected="yes">
      <act type="home" x="792919.68545" y="5754526.38383" end_time="07:37:00" />
      <leg mode="car" />
      <act type="other" x="778358.96582" y="5743692.86289" end_time="08:49:00" />
      <leg mode="car" />
      <act type="shops" x="790505.64718" y="5752116.69154" end_time="11:17:00" />
      <leg mode="car" />
      <act type="beach" x="786255.54497" y="5747965.81546" end_time="12:01:00" />
      <leg mode="car" />
      <act type="shops" x="790357.10312" y="5752184.65303" end_time="15:43:00" />
      <leg mode="car" />
      <act type="beach" x="794242.078" y="5754370.29551" end_time="18:09:00" />
      <leg mode="car" />
      <act type="home" x="792919.68545" y="5754526.38383" />
    </plan>
  </person>
  
  <person id= "23" >
    <attributes>
      <attribute name="BDIAgentType" class="java.lang.String" >io.github.agentsoz.ees.agents.Overnight_Visitor</attribute>
    </attributes>
    <plan selected="yes">
      <act type="home" x="777196.72455" y="5744398.58775" end_time="00:01:00" />
      <leg mode="car" />
      <act type="shops" x="778482.57737" y="5744462.75843" end_time="02:56:00" />
      <leg mode="car" />
      <act type="home" x="777196.72455" y="5744398.58775" end_time="06:41:00" />
      <leg mode="car" />
      <act type="other" x="778358.96582" y="5743692.86289" end_time="11:11:00" />
      <leg mode="car" />
      <act type="shops" x="778433.82508" y="5744429.17115" end_time="12:36:00" />
      <leg mode="car" />
      <act type="beach" x="778406.90316" y="5743587.79637" end_time="18:55:00" />
      <leg mode="car" />
      <act type="home" x="777196.72455" y="5744398.58775" />
    </plan>
  </person>
  
  <person id= "24" >
    <attributes>
      <attribute name="BDIAgentType" class="java.lang.String" >io.github.agentsoz.ees.agents.Overnight_Visitor</attribute>
    </attributes>
    <plan selected="yes">
      <act type="home" x="759353.31074" y="5729787.17382" end_time="04:51:00" />
      <leg mode="car" />
      <act type="beach" x="759326.8826" y="5729839.13291" end_time="07:08:00" />
      <leg mode="car" />
      <act type="home" x="759353.31074" y="5729787.17382" end_time="09:51:00" />
      <leg mode="car" />
      <act type="other" x="767533.87321" y="5747333.10942" end_time="12:17:00" />
      <leg mode="car" />
      <act type="beach" x="759326.8826" y="5729839.13291" end_time="15:16:00" />
      <leg mode="car" />
      <act type="shops" x="759317.42351" y="5729964.86105" end_time="19:52:00" />
      <leg mode="car" />
      <act type="home" x="759353.31074" y="5729787.17382" />
    </plan>
  </person>
  
  <person id= "25" >
    <attributes>
      <attribute name="BDIAgentType" class="java.lang.String" >io.github.agentsoz.ees.agents.Overnight_Visitor</attribute>
    </attributes>
    <plan selected="yes">
      <act type="home" x="777412.78017" y="5744008.09442" end_time="00:01:00" />
      <leg mode="car" />
      <act type="shops" x="778433.82508" y="5744429.17115" end_time="03:11:00" />
      <leg mode="car" />
      <act type="home" x="777412.78017" y="5744008.09442" end_time="08:09:00" />
      <leg mode="car" />
      <act type="beach" x="778237.06886" y="5743964.79164" end_time="10:45:00" />
      <leg mode="car" />
      <act type="other" x="778948.04363" y="5744611.19874" end_time="13:14:00" />
      <leg mode="car" />
      <act type="beach" x="777498.11629" y="5741920.33946" end_time="14:02:00" />
      <leg mode="car" />
      <act type="shops" x="778433.82508" y="5744429.17115" end_time="16:42:00" />
      <leg mode="car" />
      <act type="home" x="777412.78017" y="5744008.09442" />
    </plan>
  </person>
  
  <person id= "26" >
    <attributes>
      <attribute name="BDIAgentType" class="java.lang.String" >io.github.agentsoz.ees.agents.Overnight_Visitor</attribute>
    </attributes>
    <plan selected="yes">
      <act type="home" x="778210.63486" y="5744138.97464" end_time="07:18:00" />
      <leg mode="car" />
      <act type="other" x="778507.88547" y="5744455.63954" end_time="11:05:00" />
      <leg mode="car" />
      <act type="beach" x="778237.06886" y="5743964.79164" end_time="14:58:00" />
      <leg mode="car" />
      <act type="home" x="778210.63486" y="5744138.97464" end_time="18:10:00" />
      <leg mode="car" />
      <act type="beach" x="778237.06886" y="5743964.79164" end_time="23:27:00" />
      <leg mode="car" />
      <act type="home" x="778210.63486" y="5744138.97464" />
    </plan>
  </person>
  
  <person id= "27" >
    <attributes>
      <attribute name="BDIAgentType" class="java.lang.String" >io.github.agentsoz.ees.agents.Overnight_Visitor</attribute>
    </attributes>
    <plan selected="yes">
      <act type="home" x="778836.49665" y="5745094.30493" end_time="04:16:00" />
      <leg mode="car" />
      <act type="beach" x="778406.90316" y="5743587.79637" end_time="06:43:00" />
      <leg mode="car" />
      <act type="other" x="778948.04363" y="5744611.19874" end_time="10:12:00" />
      <leg mode="car" />
      <act type="beach" x="783893.9946" y="5745788.90364" end_time="16:03:00" />
      <leg mode="car" />
      <act type="shops" x="778279.66613" y="5743500.15352" end_time="19:59:00" />
      <leg mode="car" />
      <act type="beach" x="778406.90316" y="5743587.79637" end_time="21:42:00" />
      <leg mode="car" />
      <act type="home" x="778836.49665" y="5745094.30493" />
    </plan>
  </person>
  
  <person id= "28" >
    <attributes>
      <attribute name="BDIAgentType" class="java.lang.String" >io.github.agentsoz.ees.agents.Overnight_Visitor</attribute>
    </attributes>
    <plan selected="yes">
      <act type="home" x="792919.68545" y="5754526.38383" end_time="06:49:00" />
      <leg mode="car" />
      <act type="other" x="777412.78017" y="5744008.09442" end_time="08:46:00" />
      <leg mode="car" />
      <act type="beach" x="790861.74053" y="5752552.89152" end_time="11:58:00" />
      <leg mode="car" />
      <act type="other" x="778358.96582" y="5743692.86289" end_time="13:10:00" />
      <leg mode="car" />
      <act type="beach" x="794242.078" y="5754370.29551" end_time="14:47:00" />
      <leg mode="car" />
      <act type="other" x="778358.96582" y="5743692.86289" end_time="18:45:00" />
      <leg mode="car" />
      <act type="home" x="792919.68545" y="5754526.38383" />
    </plan>
  </person>
  
  <person id= "29" >
    <attributes>
      <attribute name="BDIAgentType" class="java.lang.String" >io.github.agentsoz.ees.agents.Overnight_Visitor</attribute>
    </attributes>
    <plan selected="yes">
      <act type="home" x="759310.02792" y="5730461.39643" end_time="09:32:00" />
      <leg mode="car" />
      <act type="other" x="778836.49665" y="5745094.30493" end_time="11:57:00" />
      <leg mode="car" />
      <act type="shops" x="759294.96025" y="5730628.35413" end_time="12:52:00" />
      <leg mode="car" />
      <act type="beach" x="759326.8826" y="5729839.13291" end_time="15:45:00" />
      <leg mode="car" />
      <act type="shops" x="759294.96025" y="5730628.35413" end_time="18:13:00" />
      <leg mode="car" />
      <act type="beach" x="759326.8826" y="5729839.13291" end_time="21:41:00" />
      <leg mode="car" />
      <act type="home" x="759310.02792" y="5730461.39643" />
    </plan>
  </person>
  
<!-- ====================================================================== -->
  
  </plans>
