<?xml version="1.0" ?>
  <!DOCTYPE plans SYSTEM "http://www.matsim.org/files/dtd/plans_v4.dtd">
  <plans>
  <!-- ====================================================================== -->
  <person id= "0" >
    <attributes>
      <attribute name="BDIAgentType" class="java.lang.String" >io.github.agentsoz.ees.agents.Resident</attribute>
    </attributes>
    <plan selected="yes">
      <act type="home" x="790334.82402" y="5752066.1089" end_time="10:42:00" />
      <leg mode="car" />
      <act type="work" x="789848.05453" y="5752795.44381" end_time="14:22:00" />
      <leg mode="car" />
      <act type="shops" x="790357.10312" y="5752184.65303" end_time="16:02:00" />
      <leg mode="car" />
      <act type="beach" x="790599.42678" y="5751665.27" end_time="19:31:00" />
      <leg mode="car" />
      <act type="other" x="790829.71368" y="5755284.52525" end_time="20:25:00" />
      <leg mode="car" />
      <act type="home" x="790334.82402" y="5752066.1089" />
    </plan>
  </person>
  
  <person id= "1" >
    <attributes>
      <attribute name="BDIAgentType" class="java.lang.String" >io.github.agentsoz.ees.agents.Resident</attribute>
    </attributes>
    <plan selected="yes">
      <act type="home" x="783949.4818" y="5780432.12792" end_time="09:57:00" />
      <leg mode="car" />
      <act type="work" x="789434.99816" y="5751266.44194" end_time="20:29:00" />
      <leg mode="car" />
      <act type="home" x="783949.4818" y="5780432.12792" />
    </plan>
  </person>
  
  <person id= "2" >
    <attributes>
      <attribute name="BDIAgentType" class="java.lang.String" >io.github.agentsoz.ees.agents.Resident</attribute>
    </attributes>
    <plan selected="yes">
      <act type="home" x="773957.77835" y="5781743.459" end_time="13:24:00" />
      <leg mode="car" />
      <act type="other" x="777888.65052" y="5762548.96247" end_time="17:55:00" />
      <leg mode="car" />
      <act type="home" x="773957.77835" y="5781743.459" end_time="22:39:00" />
      <leg mode="car" />
      <act type="other" x="793534.67335" y="5769831.90665" end_time="23:59:00" />
      <leg mode="car" />
      <act type="home" x="773957.77835" y="5781743.459" />
    </plan>
  </person>
  
  <person id= "3" >
    <attributes>
      <attribute name="BDIAgentType" class="java.lang.String" >io.github.agentsoz.ees.agents.Resident</attribute>
    </attributes>
    <plan selected="yes">
      <act type="home" x="791273.41393" y="5755882.37986" end_time="05:28:00" />
      <leg mode="car" />
      <act type="other" x="790829.71368" y="5755284.52525" end_time="06:58:00" />
      <leg mode="car" />
      <act type="home" x="791273.41393" y="5755882.37986" end_time="09:43:00" />
      <leg mode="car" />
      <act type="work" x="778649.17232" y="5743860.56825" end_time="13:53:00" />
      <leg mode="car" />
      <act type="shops" x="790357.10312" y="5752184.65303" end_time="16:57:00" />
      <leg mode="car" />
      <act type="work" x="790098.62271" y="5754759.19639" end_time="21:50:00" />
      <leg mode="car" />
      <act type="home" x="791273.41393" y="5755882.37986" />
    </plan>
  </person>
  
  <person id= "4" >
    <attributes>
      <attribute name="BDIAgentType" class="java.lang.String" >io.github.agentsoz.ees.agents.Resident</attribute>
    </attributes>
    <plan selected="yes">
      <act type="home" x="775483.2726" y="5780997.38201" end_time="03:45:00" />
      <leg mode="car" />
      <act type="other" x="793534.67335" y="5769831.90665" end_time="04:26:00" />
      <leg mode="car" />
      <act type="home" x="775483.2726" y="5780997.38201" end_time="06:02:00" />
      <leg mode="car" />
      <act type="other" x="777888.65052" y="5762548.96247" end_time="09:35:00" />
      <leg mode="car" />
      <act type="work" x="761856.89786" y="5763333.34179" end_time="23:59:00" />
      <leg mode="car" />
      <act type="home" x="775483.2726" y="5780997.38201" />
    </plan>
  </person>
  
  <person id= "5" >
    <attributes>
      <attribute name="BDIAgentType" class="java.lang.String" >io.github.agentsoz.ees.agents.Resident</attribute>
    </attributes>
    <plan selected="yes">
      <act type="home" x="759055.32694" y="5729950.41342" end_time="02:51:00" />
      <leg mode="car" />
      <act type="other" x="759210.79384" y="5730135.73036" end_time="04:43:00" />
      <leg mode="car" />
      <act type="home" x="759055.32694" y="5729950.41342" end_time="15:50:00" />
      <leg mode="car" />
      <act type="shops" x="759317.42351" y="5729964.86105" end_time="20:53:00" />
      <leg mode="car" />
      <act type="home" x="759055.32694" y="5729950.41342" />
    </plan>
  </person>
  
  <person id= "6" >
    <attributes>
      <attribute name="BDIAgentType" class="java.lang.String" >io.github.agentsoz.ees.agents.Resident</attribute>
    </attributes>
    <plan selected="yes">
      <act type="home" x="757324.72937" y="5753696.10808" end_time="04:04:00" />
      <leg mode="car" />
      <act type="work" x="778463.2759" y="5744455.4553" end_time="16:08:00" />
      <leg mode="car" />
      <act type="shops" x="761647.31617" y="5762952.48569" end_time="19:04:00" />
      <leg mode="car" />
      <act type="other" x="733052.04408" y="5756331.45377" end_time="20:01:00" />
      <leg mode="car" />
      <act type="work" x="778463.2759" y="5744455.4553" end_time="23:59:00" />
      <leg mode="car" />
      <act type="home" x="757324.72937" y="5753696.10808" />
    </plan>
  </person>
  
  <person id= "7" >
    <attributes>
      <attribute name="BDIAgentType" class="java.lang.String" >io.github.agentsoz.ees.agents.Resident</attribute>
    </attributes>
    <plan selected="yes">
      <act type="home" x="758685.35664" y="5730436.17594" end_time="10:46:00" />
      <leg mode="car" />
      <act type="other" x="759074.12513" y="5730215.34091" end_time="12:33:00" />
      <leg mode="car" />
      <act type="work" x="758548.82555" y="5729986.72448" end_time="23:59:00" />
      <leg mode="car" />
      <act type="home" x="758685.35664" y="5730436.17594" />
    </plan>
  </person>
  
  <person id= "8" >
    <attributes>
      <attribute name="BDIAgentType" class="java.lang.String" >io.github.agentsoz.ees.agents.Resident</attribute>
    </attributes>
    <plan selected="yes">
      <act type="home" x="759764.63385" y="5731541.01183" end_time="13:42:00" />
      <leg mode="car" />
      <act type="other" x="759210.79384" y="5730135.73036" end_time="15:23:00" />
      <leg mode="car" />
      <act type="home" x="759764.63385" y="5731541.01183" end_time="16:17:00" />
      <leg mode="car" />
      <act type="work" x="759492.64698" y="5730627.75413" end_time="21:16:00" />
      <leg mode="car" />
      <act type="other" x="759210.79384" y="5730135.73036" end_time="23:44:00" />
      <leg mode="car" />
      <act type="home" x="759764.63385" y="5731541.01183" />
    </plan>
  </person>
  
  <person id= "9" >
    <attributes>
      <attribute name="BDIAgentType" class="java.lang.String" >io.github.agentsoz.ees.agents.Resident</attribute>
    </attributes>
    <plan selected="yes">
      <act type="home" x="792879.99978" y="5762163.50466" end_time="10:14:00" />
      <leg mode="car" />
      <act type="work" x="786334.34808" y="5764005.76275" end_time="15:39:00" />
      <leg mode="car" />
      <act type="home" x="792879.99978" y="5762163.50466" end_time="16:52:00" />
      <leg mode="car" />
      <act type="work" x="778791.70915" y="5745372.55639" end_time="21:48:00" />
      <leg mode="car" />
      <act type="home" x="792879.99978" y="5762163.50466" />
    </plan>
  </person>
  
  <person id= "10" >
    <attributes>
      <attribute name="BDIAgentType" class="java.lang.String" >io.github.agentsoz.ees.agents.Resident</attribute>
    </attributes>
    <plan selected="yes">
      <act type="home" x="789016.7366" y="5750696.19489" end_time="07:59:00" />
      <leg mode="car" />
      <act type="work" x="789434.99816" y="5751266.44194" end_time="11:35:00" />
      <leg mode="car" />
      <act type="other" x="789863.66729" y="5753170.47836" end_time="12:04:00" />
      <leg mode="car" />
      <act type="shops" x="789974.17245" y="5752810.54643" end_time="14:25:00" />
      <leg mode="car" />
      <act type="home" x="789016.7366" y="5750696.19489" end_time="16:50:00" />
      <leg mode="car" />
      <act type="work" x="790106.78926" y="5751427.52566" end_time="21:46:00" />
      <leg mode="car" />
      <act type="home" x="789016.7366" y="5750696.19489" />
    </plan>
  </person>
  
  <person id= "11" >
    <attributes>
      <attribute name="BDIAgentType" class="java.lang.String" >io.github.agentsoz.ees.agents.Resident</attribute>
    </attributes>
    <plan selected="yes">
      <act type="home" x="746242.57298" y="5746659.62266" end_time="09:41:00" />
      <leg mode="car" />
      <act type="work" x="759681.61587" y="5729403.88001" end_time="12:16:00" />
      <leg mode="car" />
      <act type="shops" x="743497.21054" y="5753100.09307" end_time="14:15:00" />
      <leg mode="car" />
      <act type="beach" x="788528.10978" y="5750214.98843" end_time="16:17:00" />
      <leg mode="car" />
      <act type="home" x="746242.57298" y="5746659.62266" end_time="19:16:00" />
      <leg mode="car" />
      <act type="other" x="731819.1582" y="5755960.71592" end_time="20:49:00" />
      <leg mode="car" />
      <act type="home" x="746242.57298" y="5746659.62266" />
    </plan>
  </person>
  
  <person id= "12" >
    <attributes>
      <attribute name="BDIAgentType" class="java.lang.String" >io.github.agentsoz.ees.agents.Resident</attribute>
    </attributes>
    <plan selected="yes">
      <act type="home" x="783473.54056" y="5752883.62806" end_time="05:05:00" />
      <leg mode="car" />
      <act type="work" x="789434.99816" y="5751266.44194" end_time="09:15:00" />
      <leg mode="car" />
      <act type="shops" x="778279.66613" y="5743500.15352" end_time="10:10:00" />
      <leg mode="car" />
      <act type="home" x="783473.54056" y="5752883.62806" end_time="15:01:00" />
      <leg mode="car" />
      <act type="other" x="778154.87981" y="5743919.35957" end_time="16:01:00" />
      <leg mode="car" />
      <act type="home" x="783473.54056" y="5752883.62806" />
    </plan>
  </person>
  
  <person id= "13" >
    <attributes>
      <attribute name="BDIAgentType" class="java.lang.String" >io.github.agentsoz.ees.agents.Resident</attribute>
    </attributes>
    <plan selected="yes">
      <act type="home" x="780336.06625" y="5751663.22885" end_time="10:23:00" />
      <leg mode="car" />
      <act type="shops" x="790357.10312" y="5752184.65303" end_time="13:47:00" />
      <leg mode="car" />
      <act type="work" x="790484.60538" y="5754857.18225" end_time="17:08:00" />
      <leg mode="car" />
      <act type="shops" x="778433.82508" y="5744429.17115" end_time="19:11:00" />
      <leg mode="car" />
      <act type="home" x="780336.06625" y="5751663.22885" />
    </plan>
  </person>
  
  <person id= "14" >
    <attributes>
      <attribute name="BDIAgentType" class="java.lang.String" >io.github.agentsoz.ees.agents.Resident</attribute>
    </attributes>
    <plan selected="yes">
      <act type="home" x="778617.89526" y="5744890.49708" end_time="09:05:00" />
      <leg mode="car" />
      <act type="shops" x="778482.57737" y="5744462.75843" end_time="11:01:00" />
      <leg mode="car" />
      <act type="work" x="778210.63486" y="5744138.97464" end_time="15:49:00" />
      <leg mode="car" />
      <act type="home" x="778617.89526" y="5744890.49708" end_time="17:10:00" />
      <leg mode="car" />
      <act type="beach" x="778237.06886" y="5743964.79164" end_time="18:44:00" />
      <leg mode="car" />
      <act type="home" x="778617.89526" y="5744890.49708" end_time="20:42:00" />
      <leg mode="car" />
      <act type="other" x="778546.67853" y="5744446.73313" end_time="23:18:00" />
      <leg mode="car" />
      <act type="home" x="778617.89526" y="5744890.49708" />
    </plan>
  </person>
  
  <person id= "15" >
    <attributes>
      <attribute name="BDIAgentType" class="java.lang.String" >io.github.agentsoz.ees.agents.Resident</attribute>
    </attributes>
    <plan selected="yes">
      <act type="home" x="790830.75512" y="5752878.3643" end_time="08:02:00" />
      <leg mode="car" />
      <act type="work" x="790098.62271" y="5754759.19639" end_time="16:23:00" />
      <leg mode="car" />
      <act type="home" x="790830.75512" y="5752878.3643" />
    </plan>
  </person>
  
  <person id= "16" >
    <attributes>
      <attribute name="BDIAgentType" class="java.lang.String" >io.github.agentsoz.ees.agents.Resident</attribute>
    </attributes>
    <plan selected="yes">
      <act type="home" x="778719.45663" y="5767155.76214" end_time="04:02:00" />
      <leg mode="car" />
      <act type="other" x="792837.45553" y="5769972.52889" end_time="07:46:00" />
      <leg mode="car" />
      <act type="home" x="778719.45663" y="5767155.76214" end_time="09:18:00" />
      <leg mode="car" />
      <act type="work" x="792919.68545" y="5754526.38383" end_time="16:56:00" />
      <leg mode="car" />
      <act type="shops" x="761647.31617" y="5762952.48569" end_time="18:03:00" />
      <leg mode="car" />
      <act type="home" x="778719.45663" y="5767155.76214" />
    </plan>
  </person>
  
  <person id= "17" >
    <attributes>
      <attribute name="BDIAgentType" class="java.lang.String" >io.github.agentsoz.ees.agents.Resident</attribute>
    </attributes>
    <plan selected="yes">
      <act type="home" x="782369.14552" y="5746855.79257" end_time="08:27:00" />
      <leg mode="car" />
      <act type="work" x="789848.05453" y="5752795.44381" end_time="21:45:00" />
      <leg mode="car" />
      <act type="home" x="782369.14552" y="5746855.79257" />
    </plan>
  </person>
  
  <person id= "18" >
    <attributes>
      <attribute name="BDIAgentType" class="java.lang.String" >io.github.agentsoz.ees.agents.Resident</attribute>
    </attributes>
    <plan selected="yes">
      <act type="home" x="777500.53929" y="5742738.52265" end_time="03:51:00" />
      <leg mode="car" />
      <act type="other" x="778154.87981" y="5743919.35957" end_time="05:56:00" />
      <leg mode="car" />
      <act type="home" x="777500.53929" y="5742738.52265" end_time="14:22:00" />
      <leg mode="car" />
      <act type="shops" x="778482.57737" y="5744462.75843" end_time="18:11:00" />
      <leg mode="car" />
      <act type="home" x="777500.53929" y="5742738.52265" end_time="23:13:00" />
      <leg mode="car" />
      <act type="other" x="778154.87981" y="5743919.35957" end_time="23:59:00" />
      <leg mode="car" />
      <act type="home" x="777500.53929" y="5742738.52265" />
    </plan>
  </person>
  
  <person id= "19" >
    <attributes>
      <attribute name="BDIAgentType" class="java.lang.String" >io.github.agentsoz.ees.agents.Resident</attribute>
    </attributes>
    <plan selected="yes">
      <act type="home" x="790522.77825" y="5752567.05382" end_time="09:38:00" />
      <leg mode="car" />
      <act type="shops" x="789902.15203" y="5752276.48654" end_time="11:32:00" />
      <leg mode="car" />
      <act type="beach" x="790641.84348" y="5751394.20125" end_time="13:02:00" />
      <leg mode="car" />
      <act type="work" x="789848.05453" y="5752795.44381" end_time="16:03:00" />
      <leg mode="car" />
      <act type="shops" x="790357.10312" y="5752184.65303" end_time="18:04:00" />
      <leg mode="car" />
      <act type="home" x="790522.77825" y="5752567.05382" />
    </plan>
  </person>
  
  <person id= "20" >
    <attributes>
      <attribute name="BDIAgentType" class="java.lang.String" >io.github.agentsoz.ees.agents.Resident</attribute>
    </attributes>
    <plan selected="yes">
      <act type="home" x="769175.20787" y="5738330.45628" end_time="03:40:00" />
      <leg mode="car" />
      <act type="other" x="771374.44073" y="5738835.66619" end_time="05:21:00" />
      <leg mode="car" />
      <act type="home" x="769175.20787" y="5738330.45628" end_time="10:50:00" />
      <leg mode="car" />
      <act type="shops" x="770351.40111" y="5738001.92605" end_time="12:21:00" />
      <leg mode="car" />
      <act type="work" x="770968.05532" y="5738364.60103" end_time="20:48:00" />
      <leg mode="car" />
      <act type="home" x="769175.20787" y="5738330.45628" />
    </plan>
  </person>
  
  <person id= "21" >
    <attributes>
      <attribute name="BDIAgentType" class="java.lang.String" >io.github.agentsoz.ees.agents.Resident</attribute>
    </attributes>
    <plan selected="yes">
      <act type="home" x="758685.35664" y="5730436.17594" end_time="11:19:00" />
      <leg mode="car" />
      <act type="beach" x="759551.54671" y="5730602.07326" end_time="13:28:00" />
      <leg mode="car" />
      <act type="work" x="756924.90574" y="5726253.79922" end_time="16:54:00" />
      <leg mode="car" />
      <act type="shops" x="759294.96025" y="5730628.35413" end_time="20:34:00" />
      <leg mode="car" />
      <act type="home" x="758685.35664" y="5730436.17594" />
    </plan>
  </person>
  
  <person id= "22" >
    <attributes>
      <attribute name="BDIAgentType" class="java.lang.String" >io.github.agentsoz.ees.agents.Resident</attribute>
    </attributes>
    <plan selected="yes">
      <act type="home" x="771852.54945" y="5739161.72302" end_time="08:32:00" />
      <leg mode="car" />
      <act type="other" x="771374.44073" y="5738835.66619" end_time="10:35:00" />
      <leg mode="car" />
      <act type="work" x="771120.82582" y="5738818.00056" end_time="14:53:00" />
      <leg mode="car" />
      <act type="shops" x="777902.25512" y="5762634.6724" end_time="16:29:00" />
      <leg mode="car" />
      <act type="work" x="771120.82582" y="5738818.00056" end_time="21:55:00" />
      <leg mode="car" />
      <act type="home" x="771852.54945" y="5739161.72302" />
    </plan>
  </person>
  
  <person id= "23" >
    <attributes>
      <attribute name="BDIAgentType" class="java.lang.String" >io.github.agentsoz.ees.agents.Resident</attribute>
    </attributes>
    <plan selected="yes">
      <act type="home" x="775483.2726" y="5780997.38201" end_time="09:55:00" />
      <leg mode="car" />
      <act type="work" x="759223.27599" y="5730566.26203" end_time="12:19:00" />
      <leg mode="car" />
      <act type="beach" x="800742.88293" y="5757428.94421" end_time="17:59:00" />
      <leg mode="car" />
      <act type="work" x="786334.34808" y="5764005.76275" end_time="21:46:00" />
      <leg mode="car" />
      <act type="home" x="775483.2726" y="5780997.38201" />
    </plan>
  </person>
  
  <person id= "24" >
    <attributes>
      <attribute name="BDIAgentType" class="java.lang.String" >io.github.agentsoz.ees.agents.Resident</attribute>
    </attributes>
    <plan selected="yes">
      <act type="home" x="801871.63378" y="5757751.52857" end_time="11:51:00" />
      <leg mode="car" />
      <act type="beach" x="800742.88293" y="5757428.94421" end_time="13:55:00" />
      <leg mode="car" />
      <act type="other" x="789863.66729" y="5753170.47836" end_time="14:53:00" />
      <leg mode="car" />
      <act type="shops" x="790357.10312" y="5752184.65303" end_time="17:34:00" />
      <leg mode="car" />
      <act type="home" x="801871.63378" y="5757751.52857" end_time="19:03:00" />
      <leg mode="car" />
      <act type="shops" x="777902.25512" y="5762634.6724" end_time="21:13:00" />
      <leg mode="car" />
      <act type="other" x="792837.45553" y="5769972.52889" end_time="23:50:00" />
      <leg mode="car" />
      <act type="home" x="801871.63378" y="5757751.52857" />
    </plan>
  </person>
  
  <person id= "25" >
    <attributes>
      <attribute name="BDIAgentType" class="java.lang.String" >io.github.agentsoz.ees.agents.Resident</attribute>
    </attributes>
    <plan selected="yes">
      <act type="home" x="756456.01972" y="5781039.5643" end_time="08:37:00" />
      <leg mode="car" />
      <act type="work" x="761856.89786" y="5763333.34179" end_time="17:45:00" />
      <leg mode="car" />
      <act type="home" x="756456.01972" y="5781039.5643" />
    </plan>
  </person>
  
  <person id= "26" >
    <attributes>
      <attribute name="BDIAgentType" class="java.lang.String" >io.github.agentsoz.ees.agents.Resident</attribute>
    </attributes>
    <plan selected="yes">
      <act type="home" x="743321.97342" y="5752746.13801" end_time="07:54:00" />
      <leg mode="car" />
      <act type="shops" x="743497.21054" y="5753100.09307" end_time="08:20:00" />
      <leg mode="car" />
      <act type="other" x="733346.70278" y="5756267.50925" end_time="11:41:00" />
      <leg mode="car" />
      <act type="beach" x="778237.06886" y="5743964.79164" end_time="13:07:00" />
      <leg mode="car" />
      <act type="work" x="759681.61587" y="5729403.88001" end_time="23:59:00" />
      <leg mode="car" />
      <act type="home" x="743321.97342" y="5752746.13801" />
    </plan>
  </person>
  
  <person id= "27" >
    <attributes>
      <attribute name="BDIAgentType" class="java.lang.String" >io.github.agentsoz.ees.agents.Resident</attribute>
    </attributes>
    <plan selected="yes">
      <act type="home" x="771217.13998" y="5738557.68968" end_time="00:01:00" />
      <leg mode="car" />
      <act type="other" x="771374.44073" y="5738835.66619" end_time="03:27:00" />
      <leg mode="car" />
      <act type="home" x="771217.13998" y="5738557.68968" end_time="09:28:00" />
      <leg mode="car" />
      <act type="work" x="771154.38036" y="5738979.16897" end_time="21:00:00" />
      <leg mode="car" />
      <act type="home" x="771217.13998" y="5738557.68968" />
    </plan>
  </person>
  
  <person id= "28" >
    <attributes>
      <attribute name="BDIAgentType" class="java.lang.String" >io.github.agentsoz.ees.agents.Resident</attribute>
    </attributes>
    <plan selected="yes">
      <act type="home" x="778158.99318" y="5743545.25656" end_time="06:33:00" />
      <leg mode="car" />
      <act type="shops" x="778279.66613" y="5743500.15352" end_time="08:03:00" />
      <leg mode="car" />
      <act type="work" x="777704.05806" y="5743980.73808" end_time="12:51:00" />
      <leg mode="car" />
      <act type="beach" x="778406.90316" y="5743587.79637" end_time="15:34:00" />
      <leg mode="car" />
      <act type="work" x="778649.17232" y="5743860.56825" end_time="19:29:00" />
      <leg mode="car" />
      <act type="home" x="778158.99318" y="5743545.25656" />
    </plan>
  </person>
  
  <person id= "29" >
    <attributes>
      <attribute name="BDIAgentType" class="java.lang.String" >io.github.agentsoz.ees.agents.Resident</attribute>
    </attributes>
    <plan selected="yes">
      <act type="home" x="781426.47412" y="5753993.01837" end_time="09:56:00" />
      <leg mode="car" />
      <act type="work" x="779513.96035" y="5746544.88888" end_time="13:51:00" />
      <leg mode="car" />
      <act type="beach" x="786255.54497" y="5747965.81546" end_time="17:10:00" />
      <leg mode="car" />
      <act type="home" x="781426.47412" y="5753993.01837" end_time="19:02:00" />
      <leg mode="car" />
      <act type="shops" x="778279.66613" y="5743500.15352" end_time="20:02:00" />
      <leg mode="car" />
      <act type="home" x="781426.47412" y="5753993.01837" />
    </plan>
  </person>
  
  <person id= "30" >
    <attributes>
      <attribute name="BDIAgentType" class="java.lang.String" >io.github.agentsoz.ees.agents.Resident</attribute>
    </attributes>
    <plan selected="yes">
      <act type="home" x="753867.35859" y="5751499.92763" end_time="09:28:00" />
      <leg mode="car" />
      <act type="work" x="758548.82555" y="5729986.72448" end_time="13:34:00" />
      <leg mode="car" />
      <act type="beach" x="777498.11629" y="5741920.33946" end_time="17:01:00" />
      <leg mode="car" />
      <act type="work" x="759353.31074" y="5729787.17382" end_time="20:19:00" />
      <leg mode="car" />
      <act type="home" x="753867.35859" y="5751499.92763" />
    </plan>
  </person>
  
  <person id= "31" >
    <attributes>
      <attribute name="BDIAgentType" class="java.lang.String" >io.github.agentsoz.ees.agents.Resident</attribute>
    </attributes>
    <plan selected="yes">
      <act type="home" x="771570.16848" y="5768501.68808" end_time="08:35:00" />
      <leg mode="car" />
      <act type="work" x="793641.32026" y="5769328.94189" end_time="16:15:00" />
      <leg mode="car" />
      <act type="home" x="771570.16848" y="5768501.68808" />
    </plan>
  </person>
  
  <person id= "32" >
    <attributes>
      <attribute name="BDIAgentType" class="java.lang.String" >io.github.agentsoz.ees.agents.Resident</attribute>
    </attributes>
    <plan selected="yes">
      <act type="home" x="763343.18214" y="5766456.09696" end_time="05:34:00" />
      <leg mode="car" />
      <act type="work" x="761856.89786" y="5763333.34179" end_time="09:45:00" />
      <leg mode="car" />
      <act type="other" x="777888.65052" y="5762548.96247" end_time="10:20:00" />
      <leg mode="car" />
      <act type="work" x="771120.82582" y="5738818.00056" end_time="14:12:00" />
      <leg mode="car" />
      <act type="beach" x="777498.11629" y="5741920.33946" end_time="16:41:00" />
      <leg mode="car" />
      <act type="other" x="771374.44073" y="5738835.66619" end_time="19:44:00" />
      <leg mode="car" />
      <act type="home" x="763343.18214" y="5766456.09696" />
    </plan>
  </person>
  
  <person id= "33" >
    <attributes>
      <attribute name="BDIAgentType" class="java.lang.String" >io.github.agentsoz.ees.agents.Resident</attribute>
    </attributes>
    <plan selected="yes">
      <act type="home" x="774629.33826" y="5774479.80997" end_time="09:41:00" />
      <leg mode="car" />
      <act type="other" x="777888.65052" y="5762548.96247" end_time="10:10:00" />
      <leg mode="car" />
      <act type="home" x="774629.33826" y="5774479.80997" end_time="12:56:00" />
      <leg mode="car" />
      <act type="other" x="793202.25852" y="5769898.53301" end_time="14:57:00" />
      <leg mode="car" />
      <act type="home" x="774629.33826" y="5774479.80997" end_time="17:24:00" />
      <leg mode="car" />
      <act type="work" x="786334.34808" y="5764005.76275" end_time="23:59:00" />
      <leg mode="car" />
      <act type="home" x="774629.33826" y="5774479.80997" />
    </plan>
  </person>
  
  <person id= "34" >
    <attributes>
      <attribute name="BDIAgentType" class="java.lang.String" >io.github.agentsoz.ees.agents.Resident</attribute>
    </attributes>
    <plan selected="yes">
      <act type="home" x="763092.08377" y="5781727.64188" end_time="08:12:00" />
      <leg mode="car" />
      <act type="work" x="760128.0835" y="5729217.22829" end_time="21:47:00" />
      <leg mode="car" />
      <act type="home" x="763092.08377" y="5781727.64188" />
    </plan>
  </person>
  
  <person id= "35" >
    <attributes>
      <attribute name="BDIAgentType" class="java.lang.String" >io.github.agentsoz.ees.agents.Resident</attribute>
    </attributes>
    <plan selected="yes">
      <act type="home" x="777426.47243" y="5742212.49281" end_time="08:53:00" />
      <leg mode="car" />
      <act type="shops" x="778279.66613" y="5743500.15352" end_time="11:21:00" />
      <leg mode="car" />
      <act type="beach" x="777498.11629" y="5741920.33946" end_time="12:39:00" />
      <leg mode="car" />
      <act type="work" x="777704.05806" y="5743980.73808" end_time="17:34:00" />
      <leg mode="car" />
      <act type="home" x="777426.47243" y="5742212.49281" />
    </plan>
  </person>
  
  <person id= "36" >
    <attributes>
      <attribute name="BDIAgentType" class="java.lang.String" >io.github.agentsoz.ees.agents.Resident</attribute>
    </attributes>
    <plan selected="yes">
      <act type="home" x="756671.35971" y="5731735.96601" end_time="08:09:00" />
      <leg mode="car" />
      <act type="work" x="759353.31074" y="5729787.17382" end_time="16:26:00" />
      <leg mode="car" />
      <act type="shops" x="759317.42351" y="5729964.86105" end_time="19:54:00" />
      <leg mode="car" />
      <act type="home" x="756671.35971" y="5731735.96601" />
    </plan>
  </person>
  
  <person id= "37" >
    <attributes>
      <attribute name="BDIAgentType" class="java.lang.String" >io.github.agentsoz.ees.agents.Resident</attribute>
    </attributes>
    <plan selected="yes">
      <act type="home" x="761438.30395" y="5761983.68668" end_time="13:06:00" />
      <leg mode="car" />
      <act type="beach" x="778237.06886" y="5743964.79164" end_time="15:15:00" />
      <leg mode="car" />
      <act type="other" x="778546.67853" y="5744446.73313" end_time="17:34:00" />
      <leg mode="car" />
      <act type="work" x="761289.50657" y="5762130.29619" end_time="21:51:00" />
      <leg mode="car" />
      <act type="home" x="761438.30395" y="5761983.68668" />
    </plan>
  </person>
  
  <person id= "38" >
    <attributes>
      <attribute name="BDIAgentType" class="java.lang.String" >io.github.agentsoz.ees.agents.Resident</attribute>
    </attributes>
    <plan selected="yes">
      <act type="home" x="765787.20785" y="5737484.41921" end_time="09:08:00" />
      <leg mode="car" />
      <act type="work" x="770968.05532" y="5738364.60103" end_time="16:33:00" />
      <leg mode="car" />
      <act type="shops" x="770351.40111" y="5738001.92605" end_time="18:57:00" />
      <leg mode="car" />
      <act type="home" x="765787.20785" y="5737484.41921" end_time="21:53:00" />
      <leg mode="car" />
      <act type="work" x="770405.93026" y="5737998.74274" end_time="23:59:00" />
      <leg mode="car" />
      <act type="home" x="765787.20785" y="5737484.41921" />
    </plan>
  </person>
  
  <person id= "39" >
    <attributes>
      <attribute name="BDIAgentType" class="java.lang.String" >io.github.agentsoz.ees.agents.Resident</attribute>
    </attributes>
    <plan selected="yes">
      <act type="home" x="793533.93691" y="5770266.87819" end_time="00:01:00" />
      <leg mode="car" />