<?xml version="1.0" encoding="utf-8"?>
  <!DOCTYPE population SYSTEM "http://www.matsim.org/files/dtd/population_v6.dtd">
  <population>
  <!-- ====================================================================== -->

 <person  id= "0" >
    <attributes>
      <attribute name="BDIAgentType" class="java.lang.String" >io.github.agentsoz.ees.agents.bushfire.Resident</attribute>
      <attribute name="hasDependentsAtLocation" class="java.lang.String" ></attribute>
      <attribute name="InitialResponseThreshold" class="java.lang.Double" >0.8</attribute>
      <attribute name="FinalResponseThreshold"   class="java.lang.Double" >0.9</attribute>
      <attribute name="EvacLocationPreference" class="java.lang.String">Torquay Foreshore,790771,5752462</attribute>
      <attribute name="InvacLocationPreference" class="java.lang.String">Anglesea Shops,777471,5742412</attribute>
    </attributes>
    <plan selected="yes">
      <activity type="home" x="790081.297411366" y="5769939.67814978" end_time="00:01:00" />
      <leg mode="car" />
      <activity type="other" x="789848.578586559" y="5753094.78647086" end_time="03:28:00" />
      <leg mode="car" />
      <activity type="home" x="790081.297411366" y="5769939.67814978" end_time="08:12:00" />
      <leg mode="car" />
      <activity type="work" x="789821.107419752" y="5752635.15840662" end_time="21:30:00" />
      <leg mode="car" />
      <activity type="other" x="789861.480645674" y="5753138.57302227" end_time="22:54:00" />
      <leg mode="car" />
      <activity type="home" x="790081.297411366" y="5769939.67814978" />
    </plan>
  </person>

  

 <person  id= "1" >
    <attributes>
      <attribute name="BDIAgentType" class="java.lang.String" >io.github.agentsoz.ees.agents.bushfire.Resident</attribute>
      <attribute name="hasDependentsAtLocation" class="java.lang.String" ></attribute>
      <attribute name="InitialResponseThreshold" class="java.lang.Double" >0.5</attribute>
      <attribute name="FinalResponseThreshold"   class="java.lang.Double" >0.9</attribute>
      <attribute name="EvacLocationPreference" class="java.lang.String">Torquay Foreshore,790771,5752462</attribute>
      <attribute name="InvacLocationPreference" class="java.lang.String">Anglesea Shops,777471,5742412</attribute>
    </attributes>
    <plan selected="yes">
      <activity type="home" x="790339.728490841" y="5752286.4201043" end_time="08:46:00" />
      <leg mode="car" />
      <activity type="work" x="789858.549927019" y="5752593.53651335" end_time="12:43:00" />
      <leg mode="car" />
      <activity type="shops" x="790758.073077941" y="5752180.90520598" end_time="15:51:00" />
      <leg mode="car" />
      <activity type="home" x="790339.728490841" y="5752286.4201043" end_time="16:50:00" />
      <leg mode="car" />
      <activity type="work" x="790098.291852104" y="5754819.77500703" end_time="21:57:00" />
      <leg mode="car" />
      <activity type="home" x="790339.728490841" y="5752286.4201043" />
    </plan>
  </person>

  

 <person  id= "2" >
    <attributes>
      <attribute name="BDIAgentType" class="java.lang.String" >io.github.agentsoz.ees.agents.bushfire.Resident</attribute>
      <attribute name="hasDependentsAtLocation" class="java.lang.String" ></attribute>
      <attribute name="InitialResponseThreshold" class="java.lang.Double" >0.8</attribute>
      <attribute name="FinalResponseThreshold"   class="java.lang.Double" >0.9</attribute>
      <attribute name="EvacLocationPreference" class="java.lang.String">Torquay Foreshore,790771,5752462</attribute>
      <attribute name="InvacLocationPreference" class="java.lang.String">Anglesea Shops,777471,5742412</attribute>
    </attributes>
    <plan selected="yes">
      <activity type="home" x="797923.931769901" y="5769116.6777442" end_time="09:25:00" />
      <leg mode="car" />
      <activity type="shops" x="771131.458483015" y="5738716.99199356" end_time="11:14:00" />
      <leg mode="car" />
      <activity type="home" x="797923.931769901" y="5769116.6777442" end_time="13:17:00" />
      <leg mode="car" />
      <activity type="work" x="770414.805305086" y="5738048.92184389" end_time="23:59:00" />
      <leg mode="car" />
      <activity type="home" x="797923.931769901" y="5769116.6777442" />
    </plan>
  </person>

  

 <person  id= "3" >
    <attributes>
      <attribute name="BDIAgentType" class="java.lang.String" >io.github.agentsoz.ees.agents.bushfire.Resident</attribute>
      <attribute name="hasDependentsAtLocation" class="java.lang.String" ></attribute>
      <attribute name="InitialResponseThreshold" class="java.lang.Double" >0.1</attribute>
      <attribute name="FinalResponseThreshold"   class="java.lang.Double" >0.7</attribute>
      <attribute name="EvacLocationPreference" class="java.lang.String">Torquay Foreshore,790771,5752462</attribute>
      <attribute name="InvacLocationPreference" class="java.lang.String">Anglesea Shops,777471,5742412</attribute>
    </attributes>
    <plan selected="yes">
      <activity type="home" x="792295.950614962" y="5766546.52728486" end_time="10:05:00" />
      <leg mode="car" />
      <activity type="work" x="789928.818482896" y="5754771.77138504" end_time="14:59:00" />
      <leg mode="car" />
      <activity type="beach" x="790568.951774962" y="5751325.2355685" end_time="16:37:00" />
      <leg mode="car" />
      <activity type="home" x="792295.950614962" y="5766546.52728486" end_time="19:44:00" />
      <leg mode="car" />
      <activity type="shops" x="778501.03482008" y="5744485.067027" end_time="20:13:00" />
      <leg mode="car" />
      <activity type="home" x="792295.950614962" y="5766546.52728486" />
    </plan>
  </person>

  

 <person  id= "4" >
    <attributes>
      <attribute name="BDIAgentType" class="java.lang.String" >io.github.agentsoz.ees.agents.bushfire.Resident</attribute>
      <attribute name="hasDependentsAtLocation" class="java.lang.String" ></attribute>
      <attribute name="InitialResponseThreshold" class="java.lang.Double" >0.1</attribute>
      <attribute name="FinalResponseThreshold"   class="java.lang.Double" >0.5</attribute>
      <attribute name="EvacLocationPreference" class="java.lang.String">Torquay Foreshore,790771,5752462</attribute>
      <attribute name="InvacLocationPreference" class="java.lang.String">Anglesea Shops,777471,5742412</attribute>
    </attributes>
    <plan selected="yes">
      <activity type="home" x="776754.161078679" y="5743975.54829644" end_time="07:40:00" />
      <leg mode="car" />
      <activity type="shops" x="778190.084385339" y="5744106.22590521" end_time="08:19:00" />
      <leg mode="car" />
      <activity type="work" x="778582.406265931" y="5744323.77036824" end_time="20:36:00" />
      <leg mode="car" />
      <activity type="home" x="776754.161078679" y="5743975.54829644" />
    </plan>
  </person>

  

 <person  id= "5" >
    <attributes>
      <attribute name="BDIAgentType" class="java.lang.String" >io.github.agentsoz.ees.agents.bushfire.Resident</attribute>
      <attribute name="hasDependentsAtLocation" class="java.lang.String" >790033.076062402,5770074.8456713</attribute>
      <attribute name="InitialResponseThreshold" class="java.lang.Double" >0.3</attribute>
      <attribute name="FinalResponseThreshold"   class="java.lang.Double" >0.7</attribute>
      <attribute name="EvacLocationPreference" class="java.lang.String">Torquay Foreshore,790771,5752462</attribute>
      <attribute name="InvacLocationPreference" class="java.lang.String">Anglesea Shops,777471,5742412</attribute>
    </attributes>
    <plan selected="yes">
      <activity type="home" x="790033.27921307" y="5770075.62923607" end_time="08:11:00" />
      <leg mode="car" />
      <activity type="work" x="759292.525850378" y="5730231.89316184" end_time="16:53:00" />
      <leg mode="car" />
      <activity type="home" x="790033.27921307" y="5770075.62923607" end_time="20:41:00" />
      <leg mode="car" />
      <activity type="other" x="759157.839965405" y="5730302.57810009" end_time="23:57:00" />
      <leg mode="car" />
      <activity type="home" x="790033.27921307" y="5770075.62923607" />
    </plan>
  </person>

  

 <person  id= "6" >
    <attributes>
      <attribute name="BDIAgentType" class="java.lang.String" >io.github.agentsoz.ees.agents.bushfire.Resident</attribute>
      <attribute name="hasDependentsAtLocation" class="java.lang.String" >792257.434554487,5754216.55880239</attribute>
      <attribute name="InitialResponseThreshold" class="java.lang.Double" >0.3</attribute>
      <attribute name="FinalResponseThreshold"   class="java.lang.Double" >0.3</attribute>
      <attribute name="EvacLocationPreference" class="java.lang.String">Torquay Foreshore,790771,5752462</attribute>
      <attribute name="InvacLocationPreference" class="java.lang.String">Anglesea Shops,777471,5742412</attribute>
    </attributes>
    <plan selected="yes">
      <activity type="home" x="792256.957485142" y="5754216.76882863" end_time="07:25:00" />
      <leg mode="car" />
      <activity type="other" x="789848.578586559" y="5753094.78647086" end_time="08:11:00" />
      <leg mode="car" />
      <activity type="work" x="790055.251820108" y="5754657.1331195" end_time="17:57:00" />
      <leg mode="car" />
      <activity type="shops" x="790651.47632163" y="5752052.52107273" end_time="18:59:00" />
      <leg mode="car" />
      <activity type="home" x="792256.957485142" y="5754216.76882863" />
    </plan>
  </person>

  

 <person  id= "7" >
    <attributes>
      <attribute name="BDIAgentType" class="java.lang.String" >io.github.agentsoz.ees.agents.bushfire.Resident</attribute>
      <attribute name="hasDependentsAtLocation" class="java.lang.String" >792716.409004513,5771439.50005432</attribute>
      <attribute name="InitialResponseThreshold" class="java.lang.Double" >0.2</attribute>
      <attribute name="FinalResponseThreshold"   class="java.lang.Double" >0.4</attribute>
      <attribute name="EvacLocationPreference" class="java.lang.String">Torquay Foreshore,790771,5752462</attribute>
      <attribute name="InvacLocationPreference" class="java.lang.String">Anglesea Shops,777471,5742412</attribute>
    </attributes>
    <plan selected="yes">
      <activity type="home" x="792716.779894883" y="5771440.21841498" end_time="09:07:00" />
      <leg mode="car" />
      <activity type="shops" x="778190.084385339" y="5744106.22590521" end_time="10:53:00" />
      <leg mode="car" />
      <activity type="work" x="778935.759019689" y="5744540.95448125" end_time="15:41:00" />
      <leg mode="car" />
      <activity type="other" x="778707.911695857" y="5745384.49367177" end_time="17:58:00" />
      <leg mode="car" />
      <activity type="beach" x="790672.762749222" y="5751729.94020213" end_time="19:34:00" />
      <leg mode="car" />
      <activity type="home" x="792716.779894883" y="5771440.21841498" end_time="20:38:00" />
      <leg mode="car" />
      <activity type="other" x="778707.911695857" y="5745384.49367177" end_time="22:12:00" />
      <leg mode="car" />
      <activity type="home" x="792716.779894883" y="5771440.21841498" />
    </plan>
  </person>

  

 <person  id= "8" >
    <attributes>
      <attribute name="BDIAgentType" class="java.lang.String" >io.github.agentsoz.ees.agents.bushfire.Resident</attribute>
      <attribute name="hasDependentsAtLocation" class="java.lang.String" >758771.141309324,5729811.93192248</attribute>
      <attribute name="InitialResponseThreshold" class="java.lang.Double" >0.2</attribute>
      <attribute name="FinalResponseThreshold"   class="java.lang.Double" >0.3</attribute>
      <attribute name="EvacLocationPreference" class="java.lang.String">Torquay Foreshore,790771,5752462</attribute>
      <attribute name="InvacLocationPreference" class="java.lang.String">Anglesea Shops,777471,5742412</attribute>
    </attributes>
    <plan selected="yes">
      <activity type="home" x="758771.453202098" y="5729811.64604754" end_time="09:17:00" />
      <leg mode="car" />
      <activity type="work" x="759304.083764353" y="5730247.25466383" end_time="13:16:00" />
      <leg mode="car" />
      <activity type="beach" x="790775.326327373" y="5751338.57918683" end_time="18:09:00" />
      <leg mode="car" />
      <activity type="home" x="758771.453202098" y="5729811.64604754" />
    </plan>
  </person>

  

 <person  id= "9" >
    <attributes>
      <attribute name="BDIAgentType" class="java.lang.String" >io.github.agentsoz.ees.agents.bushfire.Resident</attribute>
      <attribute name="hasDependentsAtLocation" class="java.lang.String" ></attribute>
      <attribute name="InitialResponseThreshold" class="java.lang.Double" >0.8</attribute>
      <attribute name="FinalResponseThreshold"   class="java.lang.Double" >0.8</attribute>
      <attribute name="EvacLocationPreference" class="java.lang.String">Torquay Foreshore,790771,5752462</attribute>
      <attribute name="InvacLocationPreference" class="java.lang.String">Anglesea Shops,777471,5742412</attribute>
    </attributes>
    <plan selected="yes">
      <activity type="home" x="789622.848321037" y="5767462.81883205" end_time="10:31:00" />
      <leg mode="car" />
      <activity type="work" x="778963.078128336" y="5744537.56795992" end_time="15:21:00" />
      <leg mode="car" />
      <activity type="shops" x="771136.11027124" y="5738738.72647331" end_time="16:24:00" />
      <leg mode="car" />
      <activity type="work" x="770440.66549888" y="5738068.22089847" end_time="20:25:00" />
      <leg mode="car" />
      <activity type="home" x="789622.848321037" y="5767462.81883205" end_time="22:30:00" />
      <leg mode="car" />
      <activity type="other" x="759157.839965405" y="5730302.57810009" end_time="23:59:00" />
      <leg mode="car" />
      <activity type="home" x="789622.848321037" y="5767462.81883205" />
    </plan>
  </person>

  

 <person  id= "10" >
    <attributes>
      <attribute name="BDIAgentType" class="java.lang.String" >io.github.agentsoz.ees.agents.bushfire.Resident</attribute>
      <attribute name="hasDependentsAtLocation" class="java.lang.String" ></attribute>
      <attribute name="InitialResponseThreshold" class="java.lang.Double" >0.8</attribute>
      <attribute name="FinalResponseThreshold"   class="java.lang.Double" >0.9</attribute>
      <attribute name="EvacLocationPreference" class="java.lang.String">Torquay Foreshore,790771,5752462</attribute>
      <attribute name="InvacLocationPreference" class="java.lang.String">Anglesea Shops,777471,5742412</attribute>
    </attributes>
    <plan selected="yes">
      <activity type="home" x="790512.365380434" y="5768910.24519559" end_time="12:27:00" />
      <leg mode="car" />
      <activity type="work" x="789689.937027298" y="5752659.717908" end_time="21:40:00" />
      <leg mode="car" />
      <activity type="home" x="790512.365380434" y="5768910.24519559" />
    </plan>
  </person>

  

 <person  id= "11" >
    <attributes>
      <attribute name="BDIAgentType" class="java.lang.String" >io.github.agentsoz.ees.agents.bushfire.Resident</attribute>
      <attribute name="hasDependentsAtLocation" class="java.lang.String" ></attribute>
      <attribute name="InitialResponseThreshold" class="java.lang.Double" >0.6</attribute>
      <attribute name="FinalResponseThreshold"   class="java.lang.Double" >0.6</attribute>
      <attribute name="EvacLocationPreference" class="java.lang.String">Torquay Foreshore,790771,5752462</attribute>
      <attribute name="InvacLocationPreference" class="java.lang.String">Anglesea Shops,777471,5742412</attribute>
    </attributes>
    <plan selected="yes">
      <activity type="home" x="793039.051715679" y="5766812.99157059" end_time="07:23:00" />
      <leg mode="car" />
      <activity type="work" x="779018.190652848" y="5744557.78793347" end_time="10:44:00" />
      <leg mode="car" />
      <activity type="beach" x="790568.951774962" y="5751325.2355685" end_time="12:26:00" />
      <leg mode="car" />
      <activity type="shops" x="790624.043260644" y="5752119.69920225" end_time="14:40:00" />
      <leg mode="car" />
      <activity type="beach" x="790040.719763306" y="5750947.02859008" end_time="17:02:00" />
      <leg mode="car" />
      <activity type="work" x="779043.721912658" y="5744521.18104089" end_time="23:59:00" />
      <leg mode="car" />
      <activity type="home" x="793039.051715679" y="5766812.99157059" />
    </plan>
  </person>

  

 <person  id= "12" >
    <attributes>
      <attribute name="BDIAgentType" class="java.lang.String" >io.github.agentsoz.ees.agents.bushfire.Resident</attribute>
      <attribute name="hasDependentsAtLocation" class="java.lang.String" ></attribute>
      <attribute name="InitialResponseThreshold" class="java.lang.Double" >0.5</attribute>
      <attribute name="FinalResponseThreshold"   class="java.lang.Double" >0.6</attribute>
      <attribute name="EvacLocationPreference" class="java.lang.String">Torquay Foreshore,790771,5752462</attribute>
      <attribute name="InvacLocationPreference" class="java.lang.String">Anglesea Shops,777471,5742412</attribute>
    </attributes>
    <plan selected="yes">
      <activity type="home" x="792271.335799872" y="5767139.39252215" end_time="06:51:00" />
      <leg mode="car" />
      <activity type="work" x="789755.178079888" y="5752746.7085509" end_time="15:37:00" />
      <leg mode="car" />
      <activity type="shops" x="790591.152859536" y="5751729.2571063" end_time="16:07:00" />
      <leg mode="car" />
      <activity type="home" x="792271.335799872" y="5767139.39252215" end_time="21:49:00" />
      <leg mode="car" />
      <activity type="other" x="789816.421674447" y="5753213.33592403" end_time="22:53:00" />
      <leg mode="car" />
      <activity type="home" x="792271.335799872" y="5767139.39252215" />
    </plan>
  </person>

  

 <person  id= "13" >
    <attributes>
      <attribute name="BDIAgentType" class="java.lang.String" >io.github.agentsoz.ees.agents.bushfire.Resident</attribute>
      <attribute name="hasDependentsAtLocation" class="java.lang.String" ></attribute>
      <attribute name="InitialResponseThreshold" class="java.lang.Double" >0.8</attribute>
      <attribute name="FinalResponseThreshold"   class="java.lang.Double" >0.9</attribute>
      <attribute name="EvacLocationPreference" class="java.lang.String">Torquay Foreshore,790771,5752462</attribute>
      <attribute name="InvacLocationPreference" class="java.lang.String">Anglesea Shops,777471,5742412</attribute>
    </attributes>
    <plan selected="yes">
      <activity type="home" x="793024.198082904" y="5769856.1996976" end_time="09:46:00" />
      <leg mode="car" />
      <activity type="work" x="778582.406265931" y="5744323.77036824" end_time="12:14:00" />
      <leg mode="car" />
      <activity type="shops" x="770304.616107721" y="5738003.41901043" end_time="14:54:00" />
      <leg mode="car" />
      <activity type="other" x="771396.301080196" y="5738862.70157473" end_time="16:47:00" />
      <leg mode="car" />
      <activity type="home" x="793024.198082904" y="5769856.1996976" />
    </plan>
  </person>

  

 <person  id= "14" >
    <attributes>
      <attribute name="BDIAgentType" class="java.lang.String" >io.github.agentsoz.ees.agents.bushfire.Resident</attribute>
      <attribute name="hasDependentsAtLocation" class="java.lang.String" ></attribute>
      <attribute name="InitialResponseThreshold" class="java.lang.Double" >0.7</attribute>
      <attribute name="FinalResponseThreshold"   class="java.lang.Double" >0.9</attribute>
      <attribute name="EvacLocationPreference" class="java.lang.String">Torquay Foreshore,790771,5752462</attribute>
      <attribute name="InvacLocationPreference" class="java.lang.String">Anglesea Shops,777471,5742412</attribute>
    </attributes>
    <plan selected="yes">
      <activity type="home" x="790145.15664589" y="5752364.20732279" end_time="08:24:00" />
      <leg mode="car" />
      <activity type="work" x="789748.033182453" y="5752663.56664911" end_time="20:18:00" />
      <leg mode="car" />
      <activity type="other" x="789777.66185784" y="5753252.7750329" end_time="22:46:00" />
      <leg mode="car" />
      <activity type="home" x="790145.15664589" y="5752364.20732279" />
    </plan>
  </person>

  

 <person  id= "15" >
    <attributes>
      <attribute name="BDIAgentType" class="java.lang.String" >io.github.agentsoz.ees.agents.bushfire.Resident</attribute>
      <attribute name="hasDependentsAtLocation" class="java.lang.String" ></attribute>
      <attribute name="InitialResponseThreshold" class="java.lang.Double" >0.5</attribute>
      <attribute name="FinalResponseThreshold"   class="java.lang.Double" >0.9</attribute>
      <attribute name="EvacLocationPreference" class="java.lang.String">Torquay Foreshore,790771,5752462</attribute>
      <attribute name="InvacLocationPreference" class="java.lang.String">Anglesea Shops,777471,5742412</attribute>
    </attributes>
    <plan selected="yes">
      <activity type="home" x="793198.769568668" y="5766379.70370656" end_time="11:48:00" />
      <leg mode="car" />
      <activity type="work" x="779026.515472373" y="5744503.25746978" end_time="14:50:00" />
      <leg mode="car" />
      <activity type="home" x="793198.769568668" y="5766379.70370656" end_time="18:09:00" />
      <leg mode="car" />
      <activity type="shops" x="778190.084385339" y="5744106.22590521" end_time="21:22:00" />
      <leg mode="car" />
      <activity type="work" x="778935.759019689" y="5744540.95448125" end_time="23:59:00" />
      <leg mode="car" />
      <activity type="home" x="793198.769568668" y="5766379.70370656" />
    </plan>
  </person>

  

 <person  id= "16" >
    <attributes>
      <attribute name="BDIAgentType" class="java.lang.String" >io.github.agentsoz.ees.agents.bushfire.Resident</attribute>
      <attribute name="hasDependentsAtLocation" class="java.lang.String" ></attribute>
      <attribute name="InitialResponseThreshold" class="java.lang.Double" >0.1</attribute>
      <attribute name="FinalResponseThreshold"   class="java.lang.Double" >0.6</attribute>
      <attribute name="EvacLocationPreference" class="java.lang.String">Torquay Foreshore,790771,5752462</attribute>
      <attribute name="InvacLocationPreference" class="java.lang.String">Anglesea Shops,777471,5742412</attribute>
    </attributes>
    <plan selected="yes">
      <activity type="home" x="795965.25098868" y="5770734.80993493" end_time="06:12:00" />
      <leg mode="car" />
      <activity type="shops" x="778501.03482008" y="5744485.067027" end_time="08:13:00" />
      <leg mode="car" />
      <activity type="work" x="778917.314476542" y="5744547.29723764" end_time="17:59:00" />
      <leg mode="car" />
      <activity type="home" x="795965.25098868" y="5770734.80993493" end_time="22:22:00" />
      <leg mode="car" />
      <activity type="other" x="778707.911695857" y="5745384.49367177" end_time="23:59:00" />
      <leg mode="car" />
      <activity type="home" x="795965.25098868" y="5770734.80993493" />
    </plan>
  </person>

  

 <person  id= "17" >
    <attributes>
      <attribute name="BDIAgentType" class="java.lang.String" >io.github.agentsoz.ees.agents.bushfire.Resident</attribute>
      <attribute name="hasDependentsAtLocation" class="java.lang.String" ></attribute>
      <attribute name="InitialResponseThreshold" class="java.lang.Double" >0.9</attribute>
      <attribute name="FinalResponseThreshold"   class="java.lang.Double" >0.1</attribute>
      <attribute name="EvacLocationPreference" class="java.lang.String">Torquay Foreshore,790771,5752462</attribute>
      <attribute name="InvacLocationPreference" class="java.lang.String">Anglesea Shops,777471,5742412</attribute>
    </attributes>
    <plan selected="yes">
      <activity type="home" x="797051.854996993" y="5769073.53322709" end_time="08:59:00" />
      <leg mode="car" />
      <activity type="shops" x="778676.634879683" y="5744445.51248015" end_time="11:38:00" />
      <leg mode="car" />
      <activity type="work" x="779018.190652848" y="5744557.78793347" end_time="15:52:00" />
      <leg mode="car" />
      <activity type="home" x="797051.854996993" y="5769073.53322709" end_time="21:09:00" />
      <leg mode="car" />
      <activity type="work" x="779022.235035913" y="5744569.15549495" end_time="23:59:00" />
      <leg mode="car" />
      <activity type="home" x="797051.854996993" y="5769073.53322709" />
    </plan>
  </person>

  

 <person  id= "18" >
    <attributes>
      <attribute name="BDIAgentType" class="java.lang.String" >io.github.agentsoz.ees.agents.bushfire.Resident</attribute>
      <attribute name="hasDependentsAtLocation" class="java.lang.String" ></attribute>
      <attribute name="InitialResponseThreshold" class="java.lang.Double" >0.6</attribute>
      <attribute name="FinalResponseThreshold"   class="java.lang.Double" >0.8</attribute>
      <attribute name="EvacLocationPreference" class="java.lang.String">Torquay Foreshore,790771,5752462</attribute>
      <attribute name="InvacLocationPreference" class="java.lang.String">Anglesea Shops,777471,5742412</attribute>
    </attributes>
    <plan selected="yes">
      <activity type="home" x="791721.869380007" y="5767220.64115954" end_time="07:44:00" />
      <leg mode="car" />
      <activity type="shops" x="790745.18128794" y="5752112.37397911" end_time="09:45:00" />
      <leg mode="car" />
      <activity type="home" x="791721.869380007" y="5767220.64115954" end_time="13:33:00" />
      <leg mode="car" />
      <activity type="work" x="789711.608237217" y="5752825.53879836" end_time="17:14:00" />
      <leg mode="car" />
      <activity type="home" x="791721.869380007" y="5767220.64115954" end_time="18:37:00" />
      <leg mode="car" />
      <activity type="shops" x="759292.097333829" y="5730011.64553765" end_time="20:44:00" />
      <leg mode="car" />
      <activity type="home" x="791721.869380007" y="5767220.64115954" />
    </plan>
  </person>

  

 <person  id= "19" >
    <attributes>
      <attribute name="BDIAgentType" class="java.lang.String" >io.github.agentsoz.ees.agents.bushfire.Resident</attribute>
      <attribute name="hasDependentsAtLocation" class="java.lang.String" >789918.580344451,5769690.20775609</attribute>
      <attribute name="InitialResponseThreshold" class="java.lang.Double" >0.2</attribute>
      <attribute name="FinalResponseThreshold"   class="java.lang.Double" >0.2</attribute>
      <attribute name="EvacLocationPreference" class="java.lang.String">Torquay Foreshore,790771,5752462</attribute>
      <attribute name="InvacLocationPreference" class="java.lang.String">Anglesea Shops,777471,5742412</attribute>
    </attributes>
    <plan selected="yes">
      <activity type="home" x="789919.383581479" y="5769690.73055437" end_time="09:40:00" />
      <leg mode="car" />
      <activity type="work" x="778967.646377804" y="5744584.27541027" end_time="13:41:00" />
      <leg mode="car" />
      <activity type="beach" x="790775.326327373" y="5751338.57918683" end_time="15:36:00" />
      <leg mode="car" />
      <activity type="other" x="771396.301080196" y="5738862.70157473" end_time="16:26:00" />
      <leg mode="car" />
      <activity type="home" x="789919.383581479" y="5769690.73055437" />
    </plan>
  </person>

  

 <person  id= "20" >
    <attributes>
      <attribute name="BDIAgentType" class="java.lang.String" >io.github.agentsoz.ees.agents.bushfire.Resident</attribute>
      <attribute name="hasDependentsAtLocation" class="java.lang.String" ></attribute>
      <attribute name="InitialResponseThreshold" class="java.lang.Double" >0.5</attribute>
      <attribute name="FinalResponseThreshold"   class="java.lang.Double" >0.6</attribute>
      <attribute name="EvacLocationPreference" class="java.lang.String">Torquay Foreshore,790771,5752462</attribute>
      <attribute name="InvacLocationPreference" class="java.lang.String">Anglesea Shops,777471,5742412</attribute>
    </attributes>
    <plan selected="yes">
      <activity type="home" x="790592.483935544" y="5765905.19958102" end_time="13:05:00" />
      <leg mode="car" />
      <activity type="shops" x="790623.908636152" y="5751913.49720664" end_time="14:49:00" />
      <leg mode="car" />
      <activity type="work" x="779123.746720537" y="5744509.54458425" end_time="19:22:00" />
      <leg mode="car" />
      <activity type="home" x="790592.483935544" y="5765905.19958102" />
    </plan>
  </person>

  

 <person  id= "21" >
    <attributes>
      <attribute name="BDIAgentType" class="java.lang.String" >io.github.agentsoz.ees.agents.bushfire.Resident</attribute>
      <attribute name="hasDependentsAtLocation" class="java.lang.String" ></attribute>
      <attribute name="InitialResponseThreshold" class="java.lang.Double" >0.1</attribute>
      <attribute name="FinalResponseThreshold"   class="java.lang.Double" >0.9</attribute>
      <attribute name="EvacLocationPreference" class="java.lang.String">Torquay Foreshore,790771,5752462</attribute>
      <attribute name="InvacLocationPreference" class="java.lang.String">Anglesea Shops,777471,5742412</attribute>
    </attributes>
    <plan selected="yes">
      <activity type="home" x="793116.908441432" y="5766128.14188703" end_time="08:46:00" />
      <leg mode="car" />
      <activity type="beach" x="790040.719763306" y="5750947.02859008" end_time="11:37:00" />
      <leg mode="car" />
      <activity type="home" x="793116.908441432" y="5766128.14188703" end_time="12:42:00" />
      <leg mode="car" />
      <activity type="work" x="789931.860992373" y="5752762.88436891" end_time="16:25:00" />
      <leg mode="car" />
      <activity type="shops" x="790554.831967884" y="5752081.79891957" end_time="18:54:00" />
      <leg mode="car" />
      <activity type="home" x="793116.908441432" y="5766128.14188703" />
    </plan>
  </person>

  

 <person  id= "22" >
    <attributes>
      <attribute name="BDIAgentType" class="java.lang.String" >io.github.agentsoz.ees.agents.bushfire.Resident</attribute>