<?xml version="1.0" encoding="utf-8"?>
  <!DOCTYPE population SYSTEM "http://www.matsim.org/files/dtd/population_v6.dtd">
  <population>
  <!-- ====================================================================== -->

 <person  id= "0" >
    <attributes>
      <attribute name="BDIAgentType" class="java.lang.String" >io.github.agentsoz.ees.agents.bushfire.Resident</attribute>
      <attribute name="HasDependentsAtLocation" class="java.lang.String" >768782.051886855,5738146.26686638</attribute>
      <attribute name="InitialResponseThreshold" class="java.lang.Double" >0.2</attribute>
      <attribute name="FinalResponseThreshold"   class="java.lang.Double" >0.2</attribute>
      <attribute name="EvacLocationPreference" class="java.lang.String">Torquay Foreshore,790771,5752462</attribute>
      <attribute name="InvacLocationPreference" class="java.lang.String">Anglesea Shops,777471,5742412</attribute>
    </attributes>
    <plan selected="yes">
      <activity type="home" x="768787.520050816" y="5738132.42915363" end_time="00:01:00" />
      <leg mode="car" />
      <activity type="work" x="778582.406265931" y="5744323.77036824" end_time="05:21:00" />
      <leg mode="car" />
      <activity type="home" x="768787.520050816" y="5738132.42915363" end_time="08:50:00" />
      <leg mode="car" />
      <activity type="work" x="778582.406265931" y="5744323.77036824" end_time="13:10:00" />
      <leg mode="car" />
      <activity type="home" x="768787.520050816" y="5738132.42915363" end_time="14:51:00" />
      <leg mode="car" />
      <activity type="beach" x="777653.935985867" y="5741894.63303192" end_time="17:57:00" />
      <leg mode="car" />
      <activity type="work" x="778582.406265931" y="5744323.77036824" end_time="20:05:00" />
      <leg mode="car" />
      <activity type="home" x="768787.520050816" y="5738132.42915363" />
    </plan>
  </person>

  

 <person  id= "1" >
    <attributes>
      <attribute name="BDIAgentType" class="java.lang.String" >io.github.agentsoz.ees.agents.bushfire.Resident</attribute>
      <attribute name="HasDependentsAtLocation" class="java.lang.String" ></attribute>
      <attribute name="InitialResponseThreshold" class="java.lang.Double" >0.4</attribute>
      <attribute name="FinalResponseThreshold"   class="java.lang.Double" >0.4</attribute>
      <attribute name="EvacLocationPreference" class="java.lang.String">Torquay Foreshore,790771,5752462</attribute>
      <attribute name="InvacLocationPreference" class="java.lang.String">Anglesea Shops,777471,5742412</attribute>
    </attributes>
    <plan selected="yes">
      <activity type="home" x="792777.945709915" y="5771996.55863612" end_time="04:47:00" />
      <leg mode="car" />
      <activity type="other" x="789861.480645674" y="5753138.57302227" end_time="09:29:00" />
      <leg mode="car" />
      <activity type="beach" x="790880.588945979" y="5752593.63347727" end_time="11:25:00" />
      <leg mode="car" />
      <activity type="work" x="778582.406265931" y="5744323.77036824" end_time="19:53:00" />
      <leg mode="car" />
      <activity type="shops" x="770304.616107721" y="5738003.41901043" end_time="22:39:00" />
      <leg mode="car" />
      <activity type="home" x="792777.945709915" y="5771996.55863612" />
    </plan>
  </person>

  

 <person  id= "2" >
    <attributes>
      <attribute name="BDIAgentType" class="java.lang.String" >io.github.agentsoz.ees.agents.bushfire.Resident</attribute>
      <attribute name="HasDependentsAtLocation" class="java.lang.String" ></attribute>
      <attribute name="InitialResponseThreshold" class="java.lang.Double" >0.4</attribute>
      <attribute name="FinalResponseThreshold"   class="java.lang.Double" >0.5</attribute>
      <attribute name="EvacLocationPreference" class="java.lang.String">Torquay Foreshore,790771,5752462</attribute>
      <attribute name="InvacLocationPreference" class="java.lang.String">Anglesea Shops,777471,5742412</attribute>
    </attributes>
    <plan selected="yes">
      <activity type="home" x="789899.525708244" y="5767958.5550982" end_time="12:10:00" />
      <leg mode="car" />
      <activity type="work" x="779018.190652848" y="5744557.78793347" end_time="21:12:00" />
      <leg mode="car" />
      <activity type="home" x="789899.525708244" y="5767958.5550982" />
    </plan>
  </person>

  

 <person  id= "3" >
    <attributes>
      <attribute name="BDIAgentType" class="java.lang.String" >io.github.agentsoz.ees.agents.bushfire.Resident</attribute>
      <attribute name="HasDependentsAtLocation" class="java.lang.String" >794213.819037656,5766870.09588933</attribute>
      <attribute name="InitialResponseThreshold" class="java.lang.Double" >0.1</attribute>
      <attribute name="FinalResponseThreshold"   class="java.lang.Double" >0.8</attribute>
      <attribute name="EvacLocationPreference" class="java.lang.String">Torquay Foreshore,790771,5752462</attribute>
      <attribute name="InvacLocationPreference" class="java.lang.String">Anglesea Shops,777471,5742412</attribute>
    </attributes>
    <plan selected="yes">
      <activity type="home" x="794225.623552696" y="5766859.83647045" end_time="06:04:00" />
      <leg mode="car" />
      <activity type="work" x="778907.540540978" y="5744529.97594215" end_time="10:42:00" />
      <leg mode="car" />
      <activity type="home" x="794225.623552696" y="5766859.83647045" end_time="12:08:00" />
      <leg mode="car" />
      <activity type="work" x="779113.698750754" y="5744557.74372088" end_time="17:54:00" />
      <leg mode="car" />
      <activity type="home" x="794225.623552696" y="5766859.83647045" end_time="19:22:00" />
      <leg mode="car" />
      <activity type="shops" x="759292.957293393" y="5730046.69255781" end_time="20:23:00" />
      <leg mode="car" />
      <activity type="home" x="794225.623552696" y="5766859.83647045" />
    </plan>
  </person>

  

 <person  id= "4" >
    <attributes>
      <attribute name="BDIAgentType" class="java.lang.String" >io.github.agentsoz.ees.agents.bushfire.Resident</attribute>
      <attribute name="HasDependentsAtLocation" class="java.lang.String" ></attribute>
      <attribute name="InitialResponseThreshold" class="java.lang.Double" >0.8</attribute>
      <attribute name="FinalResponseThreshold"   class="java.lang.Double" >0.8</attribute>
      <attribute name="EvacLocationPreference" class="java.lang.String">Torquay Foreshore,790771,5752462</attribute>
      <attribute name="InvacLocationPreference" class="java.lang.String">Anglesea Shops,777471,5742412</attribute>
    </attributes>
    <plan selected="yes">
      <activity type="home" x="791516.578327325" y="5754511.94852162" end_time="05:04:00" />
      <leg mode="car" />
      <activity type="work" x="789898.117419692" y="5754671.11009119" end_time="17:42:00" />
      <leg mode="car" />
      <activity type="home" x="791516.578327325" y="5754511.94852162" end_time="19:58:00" />
      <leg mode="car" />
      <activity type="shops" x="778190.084385339" y="5744106.22590521" end_time="20:07:00" />
      <leg mode="car" />
      <activity type="home" x="791516.578327325" y="5754511.94852162" />
    </plan>
  </person>

  

 <person  id= "5" >
    <attributes>
      <attribute name="BDIAgentType" class="java.lang.String" >io.github.agentsoz.ees.agents.bushfire.Resident</attribute>
      <attribute name="HasDependentsAtLocation" class="java.lang.String" ></attribute>
      <attribute name="InitialResponseThreshold" class="java.lang.Double" >0.2</attribute>
      <attribute name="FinalResponseThreshold"   class="java.lang.Double" >0.7</attribute>
      <attribute name="EvacLocationPreference" class="java.lang.String">Torquay Foreshore,790771,5752462</attribute>
      <attribute name="InvacLocationPreference" class="java.lang.String">Anglesea Shops,777471,5742412</attribute>
    </attributes>
    <plan selected="yes">
      <activity type="home" x="793577.632656834" y="5771605.27621066" end_time="05:20:00" />
      <leg mode="car" />
      <activity type="other" x="771396.301080196" y="5738862.70157473" end_time="06:37:00" />
      <leg mode="car" />
      <activity type="shops" x="770304.616107721" y="5738003.41901043" end_time="08:15:00" />
      <leg mode="car" />
      <activity type="beach" x="790896.783195462" y="5752105.10696851" end_time="11:26:00" />
      <leg mode="car" />
      <activity type="home" x="793577.632656834" y="5771605.27621066" end_time="13:08:00" />
      <leg mode="car" />
      <activity type="beach" x="790775.326327373" y="5751338.57918683" end_time="14:38:00" />
      <leg mode="car" />
      <activity type="shops" x="771136.11027124" y="5738738.72647331" end_time="18:58:00" />
      <leg mode="car" />
      <activity type="home" x="793577.632656834" y="5771605.27621066" />
    </plan>
  </person>

  

 <person  id= "6" >
    <attributes>
      <attribute name="BDIAgentType" class="java.lang.String" >io.github.agentsoz.ees.agents.bushfire.Resident</attribute>
      <attribute name="HasDependentsAtLocation" class="java.lang.String" ></attribute>
      <attribute name="InitialResponseThreshold" class="java.lang.Double" >0.1</attribute>
      <attribute name="FinalResponseThreshold"   class="java.lang.Double" >0.9</attribute>
      <attribute name="EvacLocationPreference" class="java.lang.String">Torquay Foreshore,790771,5752462</attribute>
      <attribute name="InvacLocationPreference" class="java.lang.String">Anglesea Shops,777471,5742412</attribute>
    </attributes>
    <plan selected="yes">
      <activity type="home" x="790176.888734599" y="5753344.03443824" end_time="09:53:00" />
      <leg mode="car" />
      <activity type="shops" x="790645.050482262" y="5751930.22419024" end_time="11:51:00" />
      <leg mode="car" />
      <activity type="work" x="789905.524080843" y="5752584.73973692" end_time="14:38:00" />
      <leg mode="car" />
      <activity type="shops" x="790251.07186009" y="5752186.88566304" end_time="19:10:00" />
      <leg mode="car" />
      <activity type="home" x="790176.888734599" y="5753344.03443824" end_time="20:26:00" />
      <leg mode="car" />
      <activity type="work" x="789755.178079888" y="5752746.7085509" end_time="23:59:00" />
      <leg mode="car" />
      <activity type="home" x="790176.888734599" y="5753344.03443824" />
    </plan>
  </person>

  

 <person  id= "7" >
    <attributes>
      <attribute name="BDIAgentType" class="java.lang.String" >io.github.agentsoz.ees.agents.bushfire.Resident</attribute>
      <attribute name="HasDependentsAtLocation" class="java.lang.String" >792056.480618854,5769828.36356429</attribute>
      <attribute name="InitialResponseThreshold" class="java.lang.Double" >0.3</attribute>
      <attribute name="FinalResponseThreshold"   class="java.lang.Double" >0.6</attribute>
      <attribute name="EvacLocationPreference" class="java.lang.String">Torquay Foreshore,790771,5752462</attribute>
      <attribute name="InvacLocationPreference" class="java.lang.String">Anglesea Shops,777471,5742412</attribute>
    </attributes>
    <plan selected="yes">
      <activity type="home" x="792062.926397928" y="5769810.28501147" end_time="10:17:00" />
      <leg mode="car" />
      <activity type="shops" x="790730.420839839" y="5752033.17961219" end_time="13:33:00" />
      <leg mode="car" />
      <activity type="work" x="789905.524080843" y="5752584.73973692" end_time="20:25:00" />
      <leg mode="car" />
      <activity type="other" x="789861.480645674" y="5753138.57302227" end_time="23:52:00" />
      <leg mode="car" />
      <activity type="home" x="792062.926397928" y="5769810.28501147" />
    </plan>
  </person>

  

 <person  id= "8" >
    <attributes>
      <attribute name="BDIAgentType" class="java.lang.String" >io.github.agentsoz.ees.agents.bushfire.Resident</attribute>
      <attribute name="HasDependentsAtLocation" class="java.lang.String" ></attribute>
      <attribute name="InitialResponseThreshold" class="java.lang.Double" >0.5</attribute>
      <attribute name="FinalResponseThreshold"   class="java.lang.Double" >0.8</attribute>
      <attribute name="EvacLocationPreference" class="java.lang.String">Torquay Foreshore,790771,5752462</attribute>
      <attribute name="InvacLocationPreference" class="java.lang.String">Anglesea Shops,777471,5742412</attribute>
    </attributes>
    <plan selected="yes">
      <activity type="home" x="790952.299153053" y="5753801.91937971" end_time="06:06:00" />
      <leg mode="car" />
      <activity type="other" x="789861.480645674" y="5753138.57302227" end_time="09:59:00" />
      <leg mode="car" />
      <activity type="shops" x="790599.348993004" y="5752117.23009262" end_time="10:28:00" />
      <leg mode="car" />
      <activity type="work" x="778582.406265931" y="5744323.77036824" end_time="14:40:00" />
      <leg mode="car" />
      <activity type="home" x="790952.299153053" y="5753801.91937971" end_time="16:21:00" />
      <leg mode="car" />
      <activity type="shops" x="770326.526265268" y="5738019.45766535" end_time="18:35:00" />
      <leg mode="car" />
      <activity type="home" x="790952.299153053" y="5753801.91937971" end_time="21:26:00" />
      <leg mode="car" />
      <activity type="shops" x="770304.616107721" y="5738003.41901043" end_time="22:32:00" />
      <leg mode="car" />
      <activity type="home" x="790952.299153053" y="5753801.91937971" />
    </plan>
  </person>

  

 <person  id= "9" >
    <attributes>
      <attribute name="BDIAgentType" class="java.lang.String" >io.github.agentsoz.ees.agents.bushfire.Resident</attribute>
      <attribute name="HasDependentsAtLocation" class="java.lang.String" ></attribute>
      <attribute name="InitialResponseThreshold" class="java.lang.Double" >0.7</attribute>
      <attribute name="FinalResponseThreshold"   class="java.lang.Double" >0.9</attribute>
      <attribute name="EvacLocationPreference" class="java.lang.String">Torquay Foreshore,790771,5752462</attribute>
      <attribute name="InvacLocationPreference" class="java.lang.String">Anglesea Shops,777471,5742412</attribute>
    </attributes>
    <plan selected="yes">
      <activity type="home" x="796028.062748083" y="5769546.77695957" end_time="10:37:00" />
      <leg mode="car" />
      <activity type="beach" x="790560.824945767" y="5751343.63519774" end_time="12:49:00" />
      <leg mode="car" />
      <activity type="home" x="796028.062748083" y="5769546.77695957" end_time="14:53:00" />
      <leg mode="car" />
      <activity type="shops" x="778190.084385339" y="5744106.22590521" end_time="20:32:00" />
      <leg mode="car" />
      <activity type="home" x="796028.062748083" y="5769546.77695957" />
    </plan>
  </person>

  

 <person  id= "10" >
    <attributes>
      <attribute name="BDIAgentType" class="java.lang.String" >io.github.agentsoz.ees.agents.bushfire.Resident</attribute>
      <attribute name="HasDependentsAtLocation" class="java.lang.String" ></attribute>
      <attribute name="InitialResponseThreshold" class="java.lang.Double" >0.1</attribute>
      <attribute name="FinalResponseThreshold"   class="java.lang.Double" >0.9</attribute>
      <attribute name="EvacLocationPreference" class="java.lang.String">Torquay Foreshore,790771,5752462</attribute>
      <attribute name="InvacLocationPreference" class="java.lang.String">Anglesea Shops,777471,5742412</attribute>
    </attributes>
    <plan selected="yes">
      <activity type="home" x="796717.217333393" y="5768087.3446097" end_time="10:26:00" />
      <leg mode="car" />
      <activity type="work" x="770440.66549888" y="5738068.22089847" end_time="15:20:00" />
      <leg mode="car" />
      <activity type="beach" x="790880.588945979" y="5752593.63347727" end_time="17:40:00" />
      <leg mode="car" />
      <activity type="shops" x="770304.616107721" y="5738003.41901043" end_time="19:32:00" />
      <leg mode="car" />
      <activity type="home" x="796717.217333393" y="5768087.3446097" />
    </plan>
  </person>

  

 <person  id= "11" >
    <attributes>
      <attribute name="BDIAgentType" class="java.lang.String" >io.github.agentsoz.ees.agents.bushfire.Resident</attribute>
      <attribute name="HasDependentsAtLocation" class="java.lang.String" >792383.046042352,5768931.72987312</attribute>
      <attribute name="InitialResponseThreshold" class="java.lang.Double" >0.1</attribute>
      <attribute name="FinalResponseThreshold"   class="java.lang.Double" >0.4</attribute>
      <attribute name="EvacLocationPreference" class="java.lang.String">Torquay Foreshore,790771,5752462</attribute>
      <attribute name="InvacLocationPreference" class="java.lang.String">Anglesea Shops,777471,5742412</attribute>
    </attributes>
    <plan selected="yes">
      <activity type="home" x="792395.038667327" y="5768919.39198959" end_time="05:47:00" />
      <leg mode="car" />
      <activity type="work" x="759242.842466952" y="5730260.94977307" end_time="12:49:00" />
      <leg mode="car" />
      <activity type="home" x="792395.038667327" y="5768919.39198959" end_time="15:18:00" />
      <leg mode="car" />
      <activity type="shops" x="759295.244333777" y="5729936.9738386" end_time="17:31:00" />
      <leg mode="car" />
      <activity type="work" x="759280.9086637" y="5730304.83457865" end_time="20:28:00" />
      <leg mode="car" />
      <activity type="shops" x="770304.616107721" y="5738003.41901043" end_time="22:36:00" />
      <leg mode="car" />
      <activity type="home" x="792395.038667327" y="5768919.39198959" />
    </plan>
  </person>

  

 <person  id= "12" >
    <attributes>
      <attribute name="BDIAgentType" class="java.lang.String" >io.github.agentsoz.ees.agents.bushfire.Resident</attribute>
      <attribute name="HasDependentsAtLocation" class="java.lang.String" ></attribute>
      <attribute name="InitialResponseThreshold" class="java.lang.Double" >0.3</attribute>
      <attribute name="FinalResponseThreshold"   class="java.lang.Double" >0.3</attribute>
      <attribute name="EvacLocationPreference" class="java.lang.String">Torquay Foreshore,790771,5752462</attribute>
      <attribute name="InvacLocationPreference" class="java.lang.String">Anglesea Shops,777471,5742412</attribute>
    </attributes>
    <plan selected="yes">
      <activity type="home" x="777392.640654883" y="5743865.09978348" end_time="08:16:00" />
      <leg mode="car" />
      <activity type="work" x="779113.698750754" y="5744557.74372088" end_time="12:39:00" />
      <leg mode="car" />
      <activity type="beach" x="790880.588945979" y="5752593.63347727" end_time="14:20:00" />
      <leg mode="car" />
      <activity type="shops" x="778190.084385339" y="5744106.22590521" end_time="17:39:00" />
      <leg mode="car" />
      <activity type="beach" x="790672.762749222" y="5751729.94020213" end_time="19:08:00" />
      <leg mode="car" />
      <activity type="home" x="777392.640654883" y="5743865.09978348" />
    </plan>
  </person>

  

 <person  id= "13" >
    <attributes>
      <attribute name="BDIAgentType" class="java.lang.String" >io.github.agentsoz.ees.agents.bushfire.Resident</attribute>
      <attribute name="HasDependentsAtLocation" class="java.lang.String" >797536.2754965,5769096.03573062</attribute>
      <attribute name="InitialResponseThreshold" class="java.lang.Double" >0.3</attribute>
      <attribute name="FinalResponseThreshold"   class="java.lang.Double" >0.4</attribute>
      <attribute name="EvacLocationPreference" class="java.lang.String">Torquay Foreshore,790771,5752462</attribute>
      <attribute name="InvacLocationPreference" class="java.lang.String">Anglesea Shops,777471,5742412</attribute>
    </attributes>
    <plan selected="yes">
      <activity type="home" x="797539.334329486" y="5769091.2582464" end_time="02:58:00" />
      <leg mode="car" />
      <activity type="other" x="771396.301080196" y="5738862.70157473" end_time="05:01:00" />
      <leg mode="car" />
      <activity type="home" x="797539.334329486" y="5769091.2582464" end_time="08:31:00" />
      <leg mode="car" />
      <activity type="work" x="770414.805305086" y="5738048.92184389" end_time="13:20:00" />
      <leg mode="car" />
      <activity type="beach" x="790767.229202907" y="5751238.71465189" end_time="16:49:00" />
      <leg mode="car" />
      <activity type="home" x="797539.334329486" y="5769091.2582464" end_time="19:26:00" />
      <leg mode="car" />
      <activity type="shops" x="771136.11027124" y="5738738.72647331" end_time="21:42:00" />
      <leg mode="car" />
      <activity type="home" x="797539.334329486" y="5769091.2582464" />
    </plan>
  </person>

  

 <person  id= "14" >
    <attributes>
      <attribute name="BDIAgentType" class="java.lang.String" >io.github.agentsoz.ees.agents.bushfire.Resident</attribute>
      <attribute name="HasDependentsAtLocation" class="java.lang.String" ></attribute>
      <attribute name="InitialResponseThreshold" class="java.lang.Double" >0.3</attribute>
      <attribute name="FinalResponseThreshold"   class="java.lang.Double" >0.3</attribute>
      <attribute name="EvacLocationPreference" class="java.lang.String">Torquay Foreshore,790771,5752462</attribute>
      <attribute name="InvacLocationPreference" class="java.lang.String">Anglesea Shops,777471,5742412</attribute>
    </attributes>
    <plan selected="yes">
      <activity type="home" x="788380.847236724" y="5750281.07069757" end_time="03:32:00" />
      <leg mode="car" />
      <activity type="other" x="778707.911695857" y="5745384.49367177" end_time="05:01:00" />
      <leg mode="car" />
      <activity type="home" x="788380.847236724" y="5750281.07069757" end_time="10:48:00" />
      <leg mode="car" />
      <activity type="work" x="759242.842466952" y="5730260.94977307" end_time="14:45:00" />
      <leg mode="car" />
      <activity type="shops" x="759292.097333829" y="5730011.64553765" end_time="17:06:00" />
      <leg mode="car" />
      <activity type="home" x="788380.847236724" y="5750281.07069757" end_time="21:52:00" />
      <leg mode="car" />
      <activity type="work" x="759227.068611832" y="5730294.3296384" end_time="23:59:00" />
      <leg mode="car" />
      <activity type="home" x="788380.847236724" y="5750281.07069757" />
    </plan>
  </person>

  

 <person  id= "15" >
    <attributes>
      <attribute name="BDIAgentType" class="java.lang.String" >io.github.agentsoz.ees.agents.bushfire.Resident</attribute>
      <attribute name="HasDependentsAtLocation" class="java.lang.String" ></attribute>
      <attribute name="InitialResponseThreshold" class="java.lang.Double" >0.2</attribute>
      <attribute name="FinalResponseThreshold"   class="java.lang.Double" >0.4</attribute>
      <attribute name="EvacLocationPreference" class="java.lang.String">Torquay Foreshore,790771,5752462</attribute>
      <attribute name="InvacLocationPreference" class="java.lang.String">Anglesea Shops,777471,5742412</attribute>
    </attributes>
    <plan selected="yes">
      <activity type="home" x="790681.105755995" y="5769908.74904842" end_time="10:39:00" />
      <leg mode="car" />
      <activity type="work" x="789640.665860005" y="5752724.74939444" end_time="15:43:00" />
      <leg mode="car" />
      <activity type="home" x="790681.105755995" y="5769908.74904842" end_time="17:40:00" />
      <leg mode="car" />
      <activity type="work" x="789850.278003633" y="5754779.17975099" end_time="21:04:00" />
      <leg mode="car" />
      <activity type="home" x="790681.105755995" y="5769908.74904842" />
    </plan>
  </person>

  

 <person  id= "16" >
    <attributes>
      <attribute name="BDIAgentType" class="java.lang.String" >io.github.agentsoz.ees.agents.bushfire.Resident</attribute>
      <attribute name="HasDependentsAtLocation" class="java.lang.String" >792843.803923899,5771624.40977777</attribute>
      <attribute name="InitialResponseThreshold" class="java.lang.Double" >0.3</attribute>
      <attribute name="FinalResponseThreshold"   class="java.lang.Double" >0.6</attribute>
      <attribute name="EvacLocationPreference" class="java.lang.String">Torquay Foreshore,790771,5752462</attribute>
      <attribute name="InvacLocationPreference" class="java.lang.String">Anglesea Shops,777471,5742412</attribute>
    </attributes>
    <plan selected="yes">
      <activity type="home" x="792851.225661976" y="5771614.45029585" end_time="13:16:00" />
      <leg mode="car" />
      <activity type="work" x="778582.406265931" y="5744323.77036824" end_time="16:24:00" />
      <leg mode="car" />
      <activity type="home" x="792851.225661976" y="5771614.45029585" end_time="20:34:00" />
      <leg mode="car" />
      <activity type="work" x="778582.406265931" y="5744323.77036824" end_time="23:59:00" />
      <leg mode="car" />
      <activity type="home" x="792851.225661976" y="5771614.45029585" />
    </plan>
  </person>

  

 <person  id= "17" >
    <attributes>
      <attribute name="BDIAgentType" class="java.lang.String" >io.github.agentsoz.ees.agents.bushfire.Resident</attribute>
      <attribute name="HasDependentsAtLocation" class="java.lang.String" ></attribute>
      <attribute name="InitialResponseThreshold" class="java.lang.Double" >0.2</attribute>
      <attribute name="FinalResponseThreshold"   class="java.lang.Double" >0.8</attribute>
      <attribute name="EvacLocationPreference" class="java.lang.String">Torquay Foreshore,790771,5752462</attribute>
      <attribute name="InvacLocationPreference" class="java.lang.String">Anglesea Shops,777471,5742412</attribute>
    </attributes>
    <plan selected="yes">
      <activity type="home" x="792000.275849096" y="5767090.84702658" end_time="12:35:00" />
      <leg mode="car" />
      <activity type="work" x="770419.298108957" y="5738055.52018284" end_time="20:25:00" />
      <leg mode="car" />
      <activity type="home" x="792000.275849096" y="5767090.84702658" />
    </plan>
  </person>

  

 <person  id= "18" >
    <attributes>
      <attribute name="BDIAgentType" class="java.lang.String" >io.github.agentsoz.ees.agents.bushfire.Resident</attribute>
      <attribute name="HasDependentsAtLocation" class="java.lang.String" ></attribute>
      <attribute name="InitialResponseThreshold" class="java.lang.Double" >0.4</attribute>
      <attribute name="FinalResponseThreshold"   class="java.lang.Double" >0.8</attribute>
      <attribute name="EvacLocationPreference" class="java.lang.String">Torquay Foreshore,790771,5752462</attribute>
      <attribute name="InvacLocationPreference" class="java.lang.String">Anglesea Shops,777471,5742412</attribute>
    </attributes>
    <plan selected="yes">
      <activity type="home" x="791535.417664821" y="5769364.10714162" end_time="00:01:00" />
      <leg mode="car" />
      <activity type="work" x="771181.272486644" y="5738983.61474407" end_time="05:57:00" />
      <leg mode="car" />
      <activity type="home" x="791535.417664821" y="5769364.10714162" end_time="10:41:00" />
      <leg mode="car" />
      <activity type="work" x="778582.406265931" y="5744323.77036824" end_time="14:47:00" />
      <leg mode="car" />
      <activity type="shops" x="771131.458483015" y="5738716.99199356" end_time="19:14:00" />
      <leg mode="car" />
      <activity type="home" x="791535.417664821" y="5769364.10714162" end_time="20:30:00" />
      <leg mode="car" />
      <activity type="shops" x="778662.995089356" y="5744443.98452817" end_time="22:32:00" />
      <leg mode="car" />
      <activity type="home" x="791535.417664821" y="5769364.10714162" />
    </plan>
  </person>

  

 <person  id= "19" >
    <attributes>
      <attribute name="BDIAgentType" class="java.lang.String" >io.github.agentsoz.ees.agents.bushfire.Resident</attribute>
      <attribute name="HasDependentsAtLocation" class="java.lang.String" ></attribute>
      <attribute name="InitialResponseThreshold" class="java.lang.Double" >0.5</attribute>
      <attribute name="FinalResponseThreshold"   class="java.lang.Double" >0.8</attribute>
      <attribute name="EvacLocationPreference" class="java.lang.String">Torquay Foreshore,790771,5752462</attribute>
      <attribute name="InvacLocationPreference" class="java.lang.String">Anglesea Shops,777471,5742412</attribute>
    </attributes>
    <plan selected="yes">
      <activity type="home" x="790711.967808906" y="5768002.36485997" end_time="09:56:00" />
      <leg mode="car" />
      <activity type="other" x="789848.578586559" y="5753094.78647086" end_time="11:57:00" />
      <leg mode="car" />
      <activity type="home" x="790711.967808906" y="5768002.36485997" end_time="13:35:00" />
      <leg mode="car" />
      <activity type="beach" x="790568.951774962" y="5751325.2355685" end_time="16:16:00" />
      <leg mode="car" />
      <activity type="home" x="790711.967808906" y="5768002.36485997" />
    </plan>
  </person>

  

 <person  id= "20" >
    <attributes>
      <attribute name="BDIAgentType" class="java.lang.String" >io.github.agentsoz.ees.agents.bushfire.Resident</attribute>
      <attribute name="HasDependentsAtLocation" class="java.lang.String" ></attribute>
      <attribute name="InitialResponseThreshold" class="java.lang.Double" >0.4</attribute>
      <attribute name="FinalResponseThreshold"   class="java.lang.Double" >0.6</attribute>
      <attribute name="EvacLocationPreference" class="java.lang.String">Torquay Foreshore,790771,5752462</attribute>
      <attribute name="InvacLocationPreference" class="java.lang.String">Anglesea Shops,777471,5742412</attribute>
    </attributes>
    <plan selected="yes">
      <activity type="home" x="791757.527329838" y="5770203.33023589" end_time="09:41:00" />
      <leg mode="car" />
      <activity type="work" x="789904.114853776" y="5754638.97958416" end_time="13:36:00" />
      <leg mode="car" />
      <activity type="home" x="791757.527329838" y="5770203.33023589" end_time="14:38:00" />
      <leg mode="car" />
      <activity type="beach" x="790672.762749222" y="5751729.94020213" end_time="16:36:00" />
      <leg mode="car" />