<?xml version="1.0" encoding="utf-8"?>
  <!DOCTYPE population SYSTEM "http://www.matsim.org/files/dtd/population_v6.dtd">
  <population>
  <!-- ====================================================================== -->

 <person  id= "0" >
    <attributes>
      <attribute name="BDIAgentType" class="java.lang.String" >io.github.agentsoz.ees.agents.bushfire.Resident</attribute>
      <attribute name="HasDependentsAtLocation" class="java.lang.String" ></attribute>
      <attribute name="InitialResponseThreshold" class="java.lang.Double" >0.7</attribute>
      <attribute name="FinalResponseThreshold"   class="java.lang.Double" >0.9</attribute>
      <attribute name="WillGoHomeAfterVisitingDependents" class="java.lang.Boolean" >false</attribute>
      <attribute name="WillGoHomeBeforeLeaving" class="java.lang.Boolean" >false</attribute>
      <attribute name="EvacLocationPreference" class="java.lang.String">,792241.980747176,5754059.19193522</attribute>
      <attribute name="InvacLocationPreference" class="java.lang.String">Aireys Inlet 13,771847.149495835,5739442.64938814</attribute>
    </attributes>
    <plan selected="yes">
      <activity type="home" x="771922.61130128" y="5739531.41972925" end_time="00:01:00" />
      <leg mode="car" />
      <activity type="other" x="771396.301080196" y="5738862.70157473" end_time="03:47:00" />
      <leg mode="car" />
      <activity type="home" x="771922.61130128" y="5739531.41972925" end_time="09:34:00" />
      <leg mode="car" />
      <activity type="work" x="770427.693470059" y="5738062.11264301" end_time="17:56:00" />
      <leg mode="car" />
      <activity type="shops" x="771131.458483015" y="5738716.99199356" end_time="18:47:00" />
      <leg mode="car" />
      <activity type="home" x="771922.61130128" y="5739531.41972925" />
    </plan>
  </person>

  

 <person  id= "1" >
    <attributes>
      <attribute name="BDIAgentType" class="java.lang.String" >io.github.agentsoz.ees.agents.bushfire.Resident</attribute>
      <attribute name="HasDependentsAtLocation" class="java.lang.String" ></attribute>
      <attribute name="InitialResponseThreshold" class="java.lang.Double" >0.3</attribute>
      <attribute name="FinalResponseThreshold"   class="java.lang.Double" >0.5</attribute>
      <attribute name="WillGoHomeAfterVisitingDependents" class="java.lang.Boolean" >false</attribute>
      <attribute name="WillGoHomeBeforeLeaving" class="java.lang.Boolean" >true</attribute>
      <attribute name="EvacLocationPreference" class="java.lang.String">,725946.634709856,5753152.68589706</attribute>
      <attribute name="InvacLocationPreference" class="java.lang.String">Anglesea 48,778716.721084499,5744971.28945333</attribute>
    </attributes>
    <plan selected="yes">
      <activity type="home" x="778405.639516113" y="5745140.1762262" end_time="00:01:00" />
      <leg mode="car" />
      <activity type="work" x="789945.260881251" y="5754668.09878902" end_time="05:02:00" />
      <leg mode="car" />
      <activity type="home" x="778405.639516113" y="5745140.1762262" end_time="09:20:00" />
      <leg mode="car" />
      <activity type="work" x="789905.524080843" y="5752584.73973692" end_time="12:34:00" />
      <leg mode="car" />
      <activity type="home" x="778405.639516113" y="5745140.1762262" end_time="14:47:00" />
      <leg mode="car" />
      <activity type="work" x="789622.605436139" y="5752658.19536378" end_time="18:36:00" />
      <leg mode="car" />
      <activity type="shops" x="759294.92495719" y="5730053.93559771" end_time="21:43:00" />
      <leg mode="car" />
      <activity type="home" x="778405.639516113" y="5745140.1762262" />
    </plan>
  </person>

  

 <person  id= "2" >
    <attributes>
      <attribute name="BDIAgentType" class="java.lang.String" >io.github.agentsoz.ees.agents.bushfire.Resident</attribute>
      <attribute name="HasDependentsAtLocation" class="java.lang.String" ></attribute>
      <attribute name="InitialResponseThreshold" class="java.lang.Double" >0.5</attribute>
      <attribute name="FinalResponseThreshold"   class="java.lang.Double" >0.7</attribute>
      <attribute name="WillGoHomeAfterVisitingDependents" class="java.lang.Boolean" >false</attribute>
      <attribute name="WillGoHomeBeforeLeaving" class="java.lang.Boolean" >true</attribute>
      <attribute name="EvacLocationPreference" class="java.lang.String">Anglesea 31,778238.09613956,5743897.03583255</attribute>
      <attribute name="InvacLocationPreference" class="java.lang.String">Anglesea 7,778900.119543865,5744244.88141647</attribute>
    </attributes>
    <plan selected="yes">
      <activity type="home" x="790767.187547536" y="5753112.6836104" end_time="00:01:00" />
      <leg mode="car" />
      <activity type="other" x="778707.911695857" y="5745384.49367177" end_time="02:10:00" />
      <leg mode="car" />
      <activity type="home" x="790767.187547536" y="5753112.6836104" end_time="08:52:00" />
      <leg mode="car" />
      <activity type="work" x="789625.329890894" y="5752797.15267164" end_time="17:09:00" />
      <leg mode="car" />
      <activity type="other" x="789777.66185784" y="5753252.7750329" end_time="18:16:00" />
      <leg mode="car" />
      <activity type="home" x="790767.187547536" y="5753112.6836104" />
    </plan>
  </person>

  

 <person  id= "3" >
    <attributes>
      <attribute name="BDIAgentType" class="java.lang.String" >io.github.agentsoz.ees.agents.bushfire.Resident</attribute>
      <attribute name="HasDependentsAtLocation" class="java.lang.String" ></attribute>
      <attribute name="InitialResponseThreshold" class="java.lang.Double" >0.9</attribute>
      <attribute name="FinalResponseThreshold"   class="java.lang.Double" >0.9</attribute>
      <attribute name="WillGoHomeAfterVisitingDependents" class="java.lang.Boolean" >false</attribute>
      <attribute name="WillGoHomeBeforeLeaving" class="java.lang.Boolean" >true</attribute>
      <attribute name="EvacLocationPreference" class="java.lang.String">Anglesea River,778332.606434002,5743835.27909509</attribute>
      <attribute name="InvacLocationPreference" class="java.lang.String">,790361.455446139,5754076.74753966</attribute>
    </attributes>
    <plan selected="yes">
      <activity type="home" x="790283.71741072" y="5753392.0712785" end_time="00:01:00" />
      <leg mode="car" />
      <activity type="other" x="789777.66185784" y="5753252.7750329" end_time="02:40:00" />
      <leg mode="car" />
      <activity type="home" x="790283.71741072" y="5753392.0712785" end_time="11:54:00" />
      <leg mode="car" />
      <activity type="shops" x="790475.945694493" y="5752096.06712967" end_time="12:23:00" />
      <leg mode="car" />
      <activity type="beach" x="778614.794764519" y="5743470.87325903" end_time="15:55:00" />
      <leg mode="car" />
      <activity type="home" x="790283.71741072" y="5753392.0712785" />
    </plan>
  </person>

  

 <person  id= "4" >
    <attributes>
      <attribute name="BDIAgentType" class="java.lang.String" >io.github.agentsoz.ees.agents.bushfire.Resident</attribute>
      <attribute name="HasDependentsAtLocation" class="java.lang.String" >770914.694759763,5738595.9444277</attribute>
      <attribute name="InitialResponseThreshold" class="java.lang.Double" >0.1</attribute>
      <attribute name="FinalResponseThreshold"   class="java.lang.Double" >0.7</attribute>
      <attribute name="WillGoHomeAfterVisitingDependents" class="java.lang.Boolean" >false</attribute>
      <attribute name="WillGoHomeBeforeLeaving" class="java.lang.Boolean" >false</attribute>
      <attribute name="EvacLocationPreference" class="java.lang.String">,790894.719887596,5753891.31030722</attribute>
      <attribute name="InvacLocationPreference" class="java.lang.String">,786113.978504113,5772443.10048726</attribute>
    </attributes>
    <plan selected="yes">
      <activity type="home" x="770926.845709534" y="5738584.7778214" end_time="08:49:00" />
      <leg mode="car" />
      <activity type="other" x="789816.421674447" y="5753213.33592403" end_time="10:46:00" />
      <leg mode="car" />
      <activity type="work" x="790063.10030207" y="5754680.77610843" end_time="14:24:00" />
      <leg mode="car" />
      <activity type="shops" x="778501.03482008" y="5744485.067027" end_time="16:54:00" />
      <leg mode="car" />
      <activity type="work" x="778907.540540978" y="5744529.97594215" end_time="21:53:00" />
      <leg mode="car" />
      <activity type="home" x="770926.845709534" y="5738584.7778214" />
    </plan>
  </person>

  

 <person  id= "5" >
    <attributes>
      <attribute name="BDIAgentType" class="java.lang.String" >io.github.agentsoz.ees.agents.bushfire.Resident</attribute>
      <attribute name="HasDependentsAtLocation" class="java.lang.String" ></attribute>
      <attribute name="InitialResponseThreshold" class="java.lang.Double" >0.6</attribute>
      <attribute name="FinalResponseThreshold"   class="java.lang.Double" >0.9</attribute>
      <attribute name="WillGoHomeAfterVisitingDependents" class="java.lang.Boolean" >false</attribute>
      <attribute name="WillGoHomeBeforeLeaving" class="java.lang.Boolean" >true</attribute>
      <attribute name="EvacLocationPreference" class="java.lang.String">,768145.215009431,5778372.30932458</attribute>
      <attribute name="InvacLocationPreference" class="java.lang.String">Anglesea 25,777497.644176066,5743348.25383131</attribute>
    </attributes>
    <plan selected="yes">
      <activity type="home" x="777485.106611404" y="5743348.89879924" end_time="13:38:00" />
      <leg mode="car" />
      <activity type="work" x="778917.314476542" y="5744547.29723764" end_time="17:45:00" />
      <leg mode="car" />
      <activity type="shops" x="790484.526361175" y="5752088.26799884" end_time="18:03:00" />
      <leg mode="car" />
      <activity type="home" x="777485.106611404" y="5743348.89879924" />
    </plan>
  </person>

  

 <person  id= "6" >
    <attributes>
      <attribute name="BDIAgentType" class="java.lang.String" >io.github.agentsoz.ees.agents.bushfire.Resident</attribute>
      <attribute name="HasDependentsAtLocation" class="java.lang.String" >779126.17979177,5744355.96920386</attribute>
      <attribute name="InitialResponseThreshold" class="java.lang.Double" >0.2</attribute>
      <attribute name="FinalResponseThreshold"   class="java.lang.Double" >0.2</attribute>
      <attribute name="WillGoHomeAfterVisitingDependents" class="java.lang.Boolean" >false</attribute>
      <attribute name="WillGoHomeBeforeLeaving" class="java.lang.Boolean" >false</attribute>
      <attribute name="EvacLocationPreference" class="java.lang.String">,761683.361349673,5762954.93507857</attribute>
      <attribute name="InvacLocationPreference" class="java.lang.String">Car Park near Bowels club,778566.565731809,5744374.16399952</attribute>
    </attributes>
    <plan selected="yes">
      <activity type="home" x="779129.924252072" y="5744344.22094233" end_time="08:57:00" />
      <leg mode="car" />
      <activity type="beach" x="778614.794764519" y="5743470.87325903" end_time="10:39:00" />
      <leg mode="car" />
      <activity type="work" x="790529.350420148" y="5754735.50360634" end_time="14:14:00" />
      <leg mode="car" />
      <activity type="beach" x="790813.932219314" y="5752646.56536696" end_time="17:47:00" />
      <leg mode="car" />
      <activity type="home" x="779129.924252072" y="5744344.22094233" />
    </plan>
  </person>

  

 <person  id= "7" >
    <attributes>
      <attribute name="BDIAgentType" class="java.lang.String" >io.github.agentsoz.ees.agents.bushfire.Resident</attribute>
      <attribute name="HasDependentsAtLocation" class="java.lang.String" >771992.438300456,5739310.96704874</attribute>
      <attribute name="InitialResponseThreshold" class="java.lang.Double" >0.2</attribute>
      <attribute name="FinalResponseThreshold"   class="java.lang.Double" >0.3</attribute>
      <attribute name="WillGoHomeAfterVisitingDependents" class="java.lang.Boolean" >false</attribute>
      <attribute name="WillGoHomeBeforeLeaving" class="java.lang.Boolean" >false</attribute>
      <attribute name="EvacLocationPreference" class="java.lang.String">,725946.634709856,5753152.68589706</attribute>
      <attribute name="InvacLocationPreference" class="java.lang.String">Aireys Inlet 13,771847.149495835,5739442.64938814</attribute>
    </attributes>
    <plan selected="yes">
      <activity type="home" x="772006.458832635" y="5739308.08903776" end_time="00:01:00" />
      <leg mode="car" />
      <activity type="work" x="778980.068339046" y="5744576.673304" end_time="05:02:00" />
      <leg mode="car" />
      <activity type="home" x="772006.458832635" y="5739308.08903776" end_time="08:49:00" />
      <leg mode="car" />
      <activity type="work" x="759304.673292036" y="5730225.27642767" end_time="12:45:00" />
      <leg mode="car" />
      <activity type="beach" x="778247.725118489" y="5743352.11543371" end_time="14:23:00" />
      <leg mode="car" />
      <activity type="home" x="772006.458832635" y="5739308.08903776" end_time="17:25:00" />
      <leg mode="car" />
      <activity type="work" x="770440.66549888" y="5738068.22089847" end_time="20:43:00" />
      <leg mode="car" />
      <activity type="home" x="772006.458832635" y="5739308.08903776" />
    </plan>
  </person>

  

 <person  id= "8" >
    <attributes>
      <attribute name="BDIAgentType" class="java.lang.String" >io.github.agentsoz.ees.agents.bushfire.Resident</attribute>
      <attribute name="HasDependentsAtLocation" class="java.lang.String" >770761.404174899,5738406.35214001</attribute>
      <attribute name="InitialResponseThreshold" class="java.lang.Double" >0.3</attribute>
      <attribute name="FinalResponseThreshold"   class="java.lang.Double" >0.9</attribute>
      <attribute name="WillGoHomeAfterVisitingDependents" class="java.lang.Boolean" >false</attribute>
      <attribute name="WillGoHomeBeforeLeaving" class="java.lang.Boolean" >false</attribute>
      <attribute name="EvacLocationPreference" class="java.lang.String">,790592.002499604,5752928.59055962</attribute>
      <attribute name="InvacLocationPreference" class="java.lang.String">,748669.174308386,5765346.45268738</attribute>
    </attributes>
    <plan selected="yes">
      <activity type="home" x="770763.145002799" y="5738389.87123839" end_time="08:16:00" />
      <leg mode="car" />
      <activity type="work" x="770422.86671332" y="5738055.53444599" end_time="16:54:00" />
      <leg mode="car" />
      <activity type="home" x="770763.145002799" y="5738389.87123839" end_time="19:28:00" />
      <leg mode="car" />
      <activity type="other" x="771396.301080196" y="5738862.70157473" end_time="20:12:00" />
      <leg mode="car" />
      <activity type="home" x="770763.145002799" y="5738389.87123839" />
    </plan>
  </person>

  

 <person  id= "9" >
    <attributes>
      <attribute name="BDIAgentType" class="java.lang.String" >io.github.agentsoz.ees.agents.bushfire.Resident</attribute>
      <attribute name="HasDependentsAtLocation" class="java.lang.String" ></attribute>
      <attribute name="InitialResponseThreshold" class="java.lang.Double" >0.6</attribute>
      <attribute name="FinalResponseThreshold"   class="java.lang.Double" >0.6</attribute>
      <attribute name="WillGoHomeAfterVisitingDependents" class="java.lang.Boolean" >false</attribute>
      <attribute name="WillGoHomeBeforeLeaving" class="java.lang.Boolean" >false</attribute>
      <attribute name="EvacLocationPreference" class="java.lang.String">Anglesea 31,778238.09613956,5743897.03583255</attribute>
      <attribute name="InvacLocationPreference" class="java.lang.String">Lorne 38,759154.087702312,5729443.61657651</attribute>
    </attributes>
    <plan selected="yes">
      <activity type="home" x="759101.841897196" y="5729374.65816787" end_time="11:31:00" />
      <leg mode="car" />
      <activity type="work" x="770414.805305086" y="5738048.92184389" end_time="14:15:00" />
      <leg mode="car" />
      <activity type="beach" x="778614.794764519" y="5743470.87325903" end_time="16:42:00" />
      <leg mode="car" />
      <activity type="home" x="759101.841897196" y="5729374.65816787" />
    </plan>
  </person>

  

 <person  id= "10" >
    <attributes>
      <attribute name="BDIAgentType" class="java.lang.String" >io.github.agentsoz.ees.agents.bushfire.Resident</attribute>
      <attribute name="HasDependentsAtLocation" class="java.lang.String" ></attribute>
      <attribute name="InitialResponseThreshold" class="java.lang.Double" >0.7</attribute>
      <attribute name="FinalResponseThreshold"   class="java.lang.Double" >0.7</attribute>
      <attribute name="WillGoHomeAfterVisitingDependents" class="java.lang.Boolean" >false</attribute>
      <attribute name="WillGoHomeBeforeLeaving" class="java.lang.Boolean" >true</attribute>
      <attribute name="EvacLocationPreference" class="java.lang.String">,790515.310544487,5753801.66301497</attribute>
      <attribute name="InvacLocationPreference" class="java.lang.String">Anglesea 27,777332.544624755,5744543.990894</attribute>
    </attributes>
    <plan selected="yes">
      <activity type="home" x="777203.766897861" y="5744518.6463289" end_time="09:26:00" />
      <leg mode="car" />
      <activity type="beach" x="778614.794764519" y="5743470.87325903" end_time="10:23:00" />
      <leg mode="car" />
      <activity type="work" x="779123.746720537" y="5744509.54458425" end_time="14:13:00" />
      <leg mode="car" />
      <activity type="beach" x="778247.725118489" y="5743352.11543371" end_time="16:51:00" />
      <leg mode="car" />
      <activity type="home" x="777203.766897861" y="5744518.6463289" end_time="19:23:00" />
      <leg mode="car" />
      <activity type="shops" x="778613.583670772" y="5744463.36582895" end_time="20:29:00" />
      <leg mode="car" />
      <activity type="home" x="777203.766897861" y="5744518.6463289" />
    </plan>
  </person>

  

 <person  id= "11" >
    <attributes>
      <attribute name="BDIAgentType" class="java.lang.String" >io.github.agentsoz.ees.agents.bushfire.Resident</attribute>
      <attribute name="HasDependentsAtLocation" class="java.lang.String" ></attribute>
      <attribute name="InitialResponseThreshold" class="java.lang.Double" >0.4</attribute>
      <attribute name="FinalResponseThreshold"   class="java.lang.Double" >0.7</attribute>
      <attribute name="WillGoHomeAfterVisitingDependents" class="java.lang.Boolean" >false</attribute>
      <attribute name="WillGoHomeBeforeLeaving" class="java.lang.Boolean" >false</attribute>
      <attribute name="EvacLocationPreference" class="java.lang.String">,790592.002499604,5752928.59055962</attribute>
      <attribute name="InvacLocationPreference" class="java.lang.String">Anglesea 13,777144.138471877,5743335.40821493</attribute>
    </attributes>
    <plan selected="yes">
      <activity type="home" x="777197.319589086" y="5743313.44352503" end_time="08:39:00" />
      <leg mode="car" />
      <activity type="work" x="789899.201442913" y="5752731.93381612" end_time="13:59:00" />
      <leg mode="car" />
      <activity type="home" x="777197.319589086" y="5743313.44352503" end_time="15:11:00" />
      <leg mode="car" />
      <activity type="shops" x="790691.666625883" y="5752056.01982056" end_time="17:27:00" />
      <leg mode="car" />
      <activity type="work" x="789655.200618739" y="5752812.95534859" end_time="20:51:00" />
      <leg mode="car" />
      <activity type="home" x="777197.319589086" y="5743313.44352503" />
    </plan>
  </person>

  

 <person  id= "12" >
    <attributes>
      <attribute name="BDIAgentType" class="java.lang.String" >io.github.agentsoz.ees.agents.bushfire.Resident</attribute>
      <attribute name="HasDependentsAtLocation" class="java.lang.String" ></attribute>
      <attribute name="InitialResponseThreshold" class="java.lang.Double" >0.3</attribute>
      <attribute name="FinalResponseThreshold"   class="java.lang.Double" >0.4</attribute>
      <attribute name="WillGoHomeAfterVisitingDependents" class="java.lang.Boolean" >false</attribute>
      <attribute name="WillGoHomeBeforeLeaving" class="java.lang.Boolean" >true</attribute>
      <attribute name="EvacLocationPreference" class="java.lang.String">Aireys Pub,770925.250436505,5738417.25117341</attribute>
      <attribute name="InvacLocationPreference" class="java.lang.String">,790420.895905102,5752508.39440602</attribute>
    </attributes>
    <plan selected="yes">
      <activity type="home" x="790772.722850808" y="5752769.03319307" end_time="09:18:00" />
      <leg mode="car" />
      <activity type="beach" x="790813.932219314" y="5752646.56536696" end_time="12:45:00" />
      <leg mode="car" />
      <activity type="home" x="790772.722850808" y="5752769.03319307" end_time="14:01:00" />
      <leg mode="car" />
      <activity type="shops" x="771136.11027124" y="5738738.72647331" end_time="19:28:00" />
      <leg mode="car" />
      <activity type="home" x="790772.722850808" y="5752769.03319307" />
    </plan>
  </person>

  

 <person  id= "13" >
    <attributes>
      <attribute name="BDIAgentType" class="java.lang.String" >io.github.agentsoz.ees.agents.bushfire.Resident</attribute>
      <attribute name="HasDependentsAtLocation" class="java.lang.String" ></attribute>
      <attribute name="InitialResponseThreshold" class="java.lang.Double" >0.1</attribute>
      <attribute name="FinalResponseThreshold"   class="java.lang.Double" >0.5</attribute>
      <attribute name="WillGoHomeAfterVisitingDependents" class="java.lang.Boolean" >false</attribute>
      <attribute name="WillGoHomeBeforeLeaving" class="java.lang.Boolean" >false</attribute>
      <attribute name="EvacLocationPreference" class="java.lang.String">Lorne 21,759384.918109419,5730417.76020269</attribute>
      <attribute name="InvacLocationPreference" class="java.lang.String">,791629.529052785,5753789.46360585</attribute>
    </attributes>
    <plan selected="yes">
      <activity type="home" x="791322.706080593" y="5753508.14215188" end_time="08:31:00" />
      <leg mode="car" />
      <activity type="work" x="790110.687756304" y="5754758.10550802" end_time="17:17:00" />
      <leg mode="car" />
      <activity type="home" x="791322.706080593" y="5753508.14215188" end_time="19:26:00" />
      <leg mode="car" />
      <activity type="shops" x="778607.621306294" y="5744464.65028348" end_time="22:32:00" />
      <leg mode="car" />
      <activity type="home" x="791322.706080593" y="5753508.14215188" />
    </plan>
  </person>

  

 <person  id= "14" >
    <attributes>
      <attribute name="BDIAgentType" class="java.lang.String" >io.github.agentsoz.ees.agents.bushfire.Resident</attribute>
      <attribute name="HasDependentsAtLocation" class="java.lang.String" ></attribute>
      <attribute name="InitialResponseThreshold" class="java.lang.Double" >0.9</attribute>
      <attribute name="FinalResponseThreshold"   class="java.lang.Double" >0.9</attribute>
      <attribute name="WillGoHomeAfterVisitingDependents" class="java.lang.Boolean" >false</attribute>
      <attribute name="WillGoHomeBeforeLeaving" class="java.lang.Boolean" >false</attribute>
      <attribute name="EvacLocationPreference" class="java.lang.String">,725946.634709856,5753152.68589706</attribute>
      <attribute name="InvacLocationPreference" class="java.lang.String">Torquay,790195.111021813,5751542.48308552</attribute>
    </attributes>
    <plan selected="yes">
      <activity type="home" x="788222.131706934" y="5750407.48642489" end_time="06:07:00" />
      <leg mode="car" />
      <activity type="shops" x="778190.084385339" y="5744106.22590521" end_time="09:12:00" />
      <leg mode="car" />
      <activity type="work" x="778963.078128336" y="5744537.56795992" end_time="16:20:00" />
      <leg mode="car" />
      <activity type="other" x="789848.578586559" y="5753094.78647086" end_time="19:19:00" />
      <leg mode="car" />
      <activity type="home" x="788222.131706934" y="5750407.48642489" />
    </plan>
  </person>

  

 <person  id= "15" >
    <attributes>
      <attribute name="BDIAgentType" class="java.lang.String" >io.github.agentsoz.ees.agents.bushfire.Resident</attribute>
      <attribute name="HasDependentsAtLocation" class="java.lang.String" ></attribute>
      <attribute name="InitialResponseThreshold" class="java.lang.Double" >0.4</attribute>
      <attribute name="FinalResponseThreshold"   class="java.lang.Double" >0.4</attribute>
      <attribute name="WillGoHomeAfterVisitingDependents" class="java.lang.Boolean" >false</attribute>
      <attribute name="WillGoHomeBeforeLeaving" class="java.lang.Boolean" >false</attribute>
      <attribute name="EvacLocationPreference" class="java.lang.String">Lorne 21,759384.918109419,5730417.76020269</attribute>
      <attribute name="InvacLocationPreference" class="java.lang.String">,788231.827686886,5750808.0608502</attribute>
    </attributes>
    <plan selected="yes">
      <activity type="home" x="787887.75387993" y="5750241.55162374" end_time="08:30:00" />
      <leg mode="car" />
      <activity type="work" x="789600.745291707" y="5752749.04383702" end_time="13:48:00" />
      <leg mode="car" />
      <activity type="home" x="787887.75387993" y="5750241.55162374" end_time="15:04:00" />
      <leg mode="car" />
      <activity type="shops" x="778658.507141575" y="5744452.59159683" end_time="16:25:00" />
      <leg mode="car" />
      <activity type="work" x="779018.190652848" y="5744557.78793347" end_time="20:07:00" />
      <leg mode="car" />
      <activity type="home" x="787887.75387993" y="5750241.55162374" />
    </plan>
  </person>

  

 <person  id= "16" >
    <attributes>
      <attribute name="BDIAgentType" class="java.lang.String" >io.github.agentsoz.ees.agents.bushfire.Resident</attribute>
      <attribute name="HasDependentsAtLocation" class="java.lang.String" ></attribute>
      <attribute name="InitialResponseThreshold" class="java.lang.Double" >0.9</attribute>
      <attribute name="FinalResponseThreshold"   class="java.lang.Double" >0.9</attribute>
      <attribute name="WillGoHomeAfterVisitingDependents" class="java.lang.Boolean" >false</attribute>
      <attribute name="WillGoHomeBeforeLeaving" class="java.lang.Boolean" >true</attribute>
      <attribute name="EvacLocationPreference" class="java.lang.String">Lorne 34,759271.09371883,5729851.2967029</attribute>
      <attribute name="InvacLocationPreference" class="java.lang.String">,791277.478874657,5753976.97934263</attribute>
    </attributes>
    <plan selected="yes">
      <activity type="home" x="792334.291601828" y="5753766.36310514" end_time="05:45:00" />
      <leg mode="car" />
      <activity type="work" x="759252.299771141" y="5730351.6057338" end_time="12:16:00" />
      <leg mode="car" />
      <activity type="home" x="792334.291601828" y="5753766.36310514" end_time="15:19:00" />
      <leg mode="car" />
      <activity type="beach" x="778247.725118489" y="5743352.11543371" end_time="16:22:00" />
      <leg mode="car" />
      <activity type="shops" x="759297.260925265" y="5729942.89861022" end_time="19:56:00" />
      <leg mode="car" />
      <activity type="home" x="792334.291601828" y="5753766.36310514" />
    </plan>
  </person>

  

 <person  id= "17" >
    <attributes>
      <attribute name="BDIAgentType" class="java.lang.String" >io.github.agentsoz.ees.agents.bushfire.Resident</attribute>
      <attribute name="HasDependentsAtLocation" class="java.lang.String" ></attribute>
      <attribute name="InitialResponseThreshold" class="java.lang.Double" >0.7</attribute>
      <attribute name="FinalResponseThreshold"   class="java.lang.Double" >0.8</attribute>
      <attribute name="WillGoHomeAfterVisitingDependents" class="java.lang.Boolean" >false</attribute>
      <attribute name="WillGoHomeBeforeLeaving" class="java.lang.Boolean" >false</attribute>
      <attribute name="EvacLocationPreference" class="java.lang.String">,792241.980747176,5754059.19193522</attribute>
      <attribute name="InvacLocationPreference" class="java.lang.String">Lorne 10,759380.518319403,5731303.59740134</attribute>
    </attributes>
    <plan selected="yes">
      <activity type="home" x="759335.759597052" y="5731315.05854394" end_time="08:50:00" />
      <leg mode="car" />
      <activity type="work" x="759292.525850378" y="5730231.89316184" end_time="13:15:00" />
      <leg mode="car" />
      <activity type="beach" x="778614.794764519" y="5743470.87325903" end_time="14:21:00" />
      <leg mode="car" />
      <activity type="shops" x="790537.10666085" y="5752085.188274" end_time="17:09:00" />
      <leg mode="car" />
      <activity type="work" x="789628.845592299" y="5752780.55595575" end_time="20:55:00" />
      <leg mode="car" />
      <activity type="shops" x="790604.115232498" y="5752201.4336625" end_time="22:22:00" />
      <leg mode="car" />
      <activity type="home" x="759335.759597052" y="5731315.05854394" />
    </plan>
  </person>

  

 <person  id= "18" >
    <attributes>
      <attribute name="BDIAgentType" class="java.lang.String" >io.github.agentsoz.ees.agents.bushfire.Resident</attribute>
      <attribute name="HasDependentsAtLocation" class="java.lang.String" >790578.476290564,5753012.8074998</attribute>
      <attribute name="InitialResponseThreshold" class="java.lang.Double" >0.1</attribute>
      <attribute name="FinalResponseThreshold"   class="java.lang.Double" >0.3</attribute>
      <attribute name="WillGoHomeAfterVisitingDependents" class="java.lang.Boolean" >true</attribute>
      <attribute name="WillGoHomeBeforeLeaving" class="java.lang.Boolean" >false</attribute>
      <attribute name="EvacLocationPreference" class="java.lang.String">,743345.54165134,5752749.80696866</attribute>
      <attribute name="InvacLocationPreference" class="java.lang.String">,790592.002499604,5752928.59055962</attribute>
    </attributes>
    <plan selected="yes">