<?xml version="1.0" encoding="utf-8"?>
  <!DOCTYPE population SYSTEM "http://www.matsim.org/files/dtd/population_v6.dtd">
  <population>
  <!-- ====================================================================== -->

 <person  id= "0" >
    <attributes>
      <attribute name="BDIAgentType" class="java.lang.String" >io.github.agentsoz.ees.agents.bushfire.Resident</attribute>
      <attribute name="hasDependentsAtLocation" class="java.lang.String" ></attribute>
      <attribute name="InitialResponseThreshold" class="java.lang.Double" >0.7</attribute>
      <attribute name="FinalResponseThreshold"   class="java.lang.Double" >0.8</attribute>
      <attribute name="EvacLocationPreference" class="java.lang.String">Torquay Foreshore,790771,5752462</attribute>
      <attribute name="InvacLocationPreference" class="java.lang.String">Anglesea Shops,777471,5742412</attribute>
    </attributes>
    <plan selected="yes">
      <activity type="home" x="759701.653870103" y="5729527.21198567" end_time="04:43:00" />
      <leg mode="car" />
      <activity type="work" x="759292.525850378" y="5730231.89316184" end_time="16:26:00" />
      <leg mode="car" />
      <activity type="home" x="759701.653870103" y="5729527.21198567" />
    </plan>
  </person>

  

 <person  id= "1" >
    <attributes>
      <attribute name="BDIAgentType" class="java.lang.String" >io.github.agentsoz.ees.agents.bushfire.Resident</attribute>
      <attribute name="hasDependentsAtLocation" class="java.lang.String" >790137.748138991,5768823.77718458</attribute>
      <attribute name="InitialResponseThreshold" class="java.lang.Double" >0.1</attribute>
      <attribute name="FinalResponseThreshold"   class="java.lang.Double" >0.7</attribute>
      <attribute name="EvacLocationPreference" class="java.lang.String">Torquay Foreshore,790771,5752462</attribute>
      <attribute name="InvacLocationPreference" class="java.lang.String">Anglesea Shops,777471,5742412</attribute>
    </attributes>
    <plan selected="yes">
      <activity type="home" x="790138.577165161" y="5768823.73352098" end_time="02:15:00" />
      <leg mode="car" />
      <activity type="other" x="789816.421674447" y="5753213.33592403" end_time="04:13:00" />
      <leg mode="car" />
      <activity type="home" x="790138.577165161" y="5768823.73352098" end_time="09:18:00" />
      <leg mode="car" />
      <activity type="work" x="778582.406265931" y="5744323.77036824" end_time="13:48:00" />
      <leg mode="car" />
      <activity type="shops" x="778175.520327603" y="5744153.76169213" end_time="15:45:00" />
      <leg mode="car" />
      <activity type="beach" x="790896.783195462" y="5752105.10696851" end_time="17:31:00" />
      <leg mode="car" />
      <activity type="home" x="790138.577165161" y="5768823.73352098" end_time="19:50:00" />
      <leg mode="car" />
      <activity type="shops" x="770304.616107721" y="5738003.41901043" end_time="21:26:00" />
      <leg mode="car" />
      <activity type="home" x="790138.577165161" y="5768823.73352098" />
    </plan>
  </person>

  

 <person  id= "2" >
    <attributes>
      <attribute name="BDIAgentType" class="java.lang.String" >io.github.agentsoz.ees.agents.bushfire.Resident</attribute>
      <attribute name="hasDependentsAtLocation" class="java.lang.String" ></attribute>
      <attribute name="InitialResponseThreshold" class="java.lang.Double" >0.4</attribute>
      <attribute name="FinalResponseThreshold"   class="java.lang.Double" >0.9</attribute>
      <attribute name="EvacLocationPreference" class="java.lang.String">Torquay Foreshore,790771,5752462</attribute>
      <attribute name="InvacLocationPreference" class="java.lang.String">Anglesea Shops,777471,5742412</attribute>
    </attributes>
    <plan selected="yes">
      <activity type="home" x="795196.796832397" y="5768773.30401966" end_time="09:00:00" />
      <leg mode="car" />
      <activity type="beach" x="778614.794764519" y="5743470.87325903" end_time="11:40:00" />
      <leg mode="car" />
      <activity type="home" x="795196.796832397" y="5768773.30401966" end_time="12:38:00" />
      <leg mode="car" />
      <activity type="work" x="770419.298108957" y="5738055.52018284" end_time="16:08:00" />
      <leg mode="car" />
      <activity type="other" x="771396.301080196" y="5738862.70157473" end_time="18:03:00" />
      <leg mode="car" />
      <activity type="home" x="795196.796832397" y="5768773.30401966" />
    </plan>
  </person>

  

 <person  id= "3" >
    <attributes>
      <attribute name="BDIAgentType" class="java.lang.String" >io.github.agentsoz.ees.agents.bushfire.Resident</attribute>
      <attribute name="hasDependentsAtLocation" class="java.lang.String" ></attribute>
      <attribute name="InitialResponseThreshold" class="java.lang.Double" >0.8</attribute>
      <attribute name="FinalResponseThreshold"   class="java.lang.Double" >0.8</attribute>
      <attribute name="EvacLocationPreference" class="java.lang.String">Torquay Foreshore,790771,5752462</attribute>
      <attribute name="InvacLocationPreference" class="java.lang.String">Anglesea Shops,777471,5742412</attribute>
    </attributes>
    <plan selected="yes">
      <activity type="home" x="788537.586307506" y="5751203.25160418" end_time="08:15:00" />
      <leg mode="car" />
      <activity type="beach" x="790880.588945979" y="5752593.63347727" end_time="11:44:00" />
      <leg mode="car" />
      <activity type="home" x="788537.586307506" y="5751203.25160418" end_time="12:47:00" />
      <leg mode="car" />
      <activity type="work" x="778582.406265931" y="5744323.77036824" end_time="17:43:00" />
      <leg mode="car" />
      <activity type="home" x="788537.586307506" y="5751203.25160418" />
    </plan>
  </person>

  

 <person  id= "4" >
    <attributes>
      <attribute name="BDIAgentType" class="java.lang.String" >io.github.agentsoz.ees.agents.bushfire.Resident</attribute>
      <attribute name="hasDependentsAtLocation" class="java.lang.String" ></attribute>
      <attribute name="InitialResponseThreshold" class="java.lang.Double" >0.6</attribute>
      <attribute name="FinalResponseThreshold"   class="java.lang.Double" >0.8</attribute>
      <attribute name="EvacLocationPreference" class="java.lang.String">Torquay Foreshore,790771,5752462</attribute>
      <attribute name="InvacLocationPreference" class="java.lang.String">Anglesea Shops,777471,5742412</attribute>
    </attributes>
    <plan selected="yes">
      <activity type="home" x="793034.076676373" y="5769526.05726381" end_time="08:42:00" />
      <leg mode="car" />
      <activity type="work" x="778582.406265931" y="5744323.77036824" end_time="13:24:00" />
      <leg mode="car" />
      <activity type="beach" x="790880.588945979" y="5752593.63347727" end_time="14:51:00" />
      <leg mode="car" />
      <activity type="shops" x="770304.616107721" y="5738003.41901043" end_time="19:44:00" />
      <leg mode="car" />
      <activity type="home" x="793034.076676373" y="5769526.05726381" />
    </plan>
  </person>

  

 <person  id= "5" >
    <attributes>
      <attribute name="BDIAgentType" class="java.lang.String" >io.github.agentsoz.ees.agents.bushfire.Resident</attribute>
      <attribute name="hasDependentsAtLocation" class="java.lang.String" ></attribute>
      <attribute name="InitialResponseThreshold" class="java.lang.Double" >0.8</attribute>
      <attribute name="FinalResponseThreshold"   class="java.lang.Double" >0.9</attribute>
      <attribute name="EvacLocationPreference" class="java.lang.String">Torquay Foreshore,790771,5752462</attribute>
      <attribute name="InvacLocationPreference" class="java.lang.String">Anglesea Shops,777471,5742412</attribute>
    </attributes>
    <plan selected="yes">
      <activity type="home" x="792110.243987203" y="5767511.17096733" end_time="00:01:00" />
      <leg mode="car" />
      <activity type="other" x="789861.480645674" y="5753138.57302227" end_time="02:02:00" />
      <leg mode="car" />
      <activity type="home" x="792110.243987203" y="5767511.17096733" end_time="07:54:00" />
      <leg mode="car" />
      <activity type="work" x="789944.217326009" y="5752567.63102282" end_time="10:29:00" />
      <leg mode="car" />
      <activity type="home" x="792110.243987203" y="5767511.17096733" end_time="13:03:00" />
      <leg mode="car" />
      <activity type="work" x="790104.661130985" y="5754667.21677892" end_time="16:38:00" />
      <leg mode="car" />
      <activity type="shops" x="790251.07186009" y="5752186.88566304" end_time="19:26:00" />
      <leg mode="car" />
      <activity type="home" x="792110.243987203" y="5767511.17096733" />
    </plan>
  </person>

  

 <person  id= "6" >
    <attributes>
      <attribute name="BDIAgentType" class="java.lang.String" >io.github.agentsoz.ees.agents.bushfire.Resident</attribute>
      <attribute name="hasDependentsAtLocation" class="java.lang.String" ></attribute>
      <attribute name="InitialResponseThreshold" class="java.lang.Double" >0.2</attribute>
      <attribute name="FinalResponseThreshold"   class="java.lang.Double" >0.9</attribute>
      <attribute name="EvacLocationPreference" class="java.lang.String">Torquay Foreshore,790771,5752462</attribute>
      <attribute name="InvacLocationPreference" class="java.lang.String">Anglesea Shops,777471,5742412</attribute>
    </attributes>
    <plan selected="yes">
      <activity type="home" x="796756.100747226" y="5769581.14211077" end_time="12:18:00" />
      <leg mode="car" />
      <activity type="work" x="779018.190652848" y="5744557.78793347" end_time="16:42:00" />
      <leg mode="car" />
      <activity type="shops" x="771131.458483015" y="5738716.99199356" end_time="18:25:00" />
      <leg mode="car" />
      <activity type="home" x="796756.100747226" y="5769581.14211077" />
    </plan>
  </person>

  

 <person  id= "7" >
    <attributes>
      <attribute name="BDIAgentType" class="java.lang.String" >io.github.agentsoz.ees.agents.bushfire.Resident</attribute>
      <attribute name="hasDependentsAtLocation" class="java.lang.String" ></attribute>
      <attribute name="InitialResponseThreshold" class="java.lang.Double" >0.2</attribute>
      <attribute name="FinalResponseThreshold"   class="java.lang.Double" >0.3</attribute>
      <attribute name="EvacLocationPreference" class="java.lang.String">Torquay Foreshore,790771,5752462</attribute>
      <attribute name="InvacLocationPreference" class="java.lang.String">Anglesea Shops,777471,5742412</attribute>
    </attributes>
    <plan selected="yes">
      <activity type="home" x="797400.13548617" y="5768364.68825244" end_time="11:46:00" />
      <leg mode="car" />
      <activity type="beach" x="790568.951774962" y="5751325.2355685" end_time="13:57:00" />
      <leg mode="car" />
      <activity type="work" x="770414.805305086" y="5738048.92184389" end_time="16:48:00" />
      <leg mode="car" />
      <activity type="other" x="771396.301080196" y="5738862.70157473" end_time="18:29:00" />
      <leg mode="car" />
      <activity type="shops" x="770304.616107721" y="5738003.41901043" end_time="20:51:00" />
      <leg mode="car" />
      <activity type="home" x="797400.13548617" y="5768364.68825244" end_time="23:25:00" />
      <leg mode="car" />
      <activity type="other" x="759157.839965405" y="5730302.57810009" end_time="23:59:00" />
      <leg mode="car" />
      <activity type="home" x="797400.13548617" y="5768364.68825244" />
    </plan>
  </person>

  

 <person  id= "8" >
    <attributes>
      <attribute name="BDIAgentType" class="java.lang.String" >io.github.agentsoz.ees.agents.bushfire.Resident</attribute>
      <attribute name="hasDependentsAtLocation" class="java.lang.String" ></attribute>
      <attribute name="InitialResponseThreshold" class="java.lang.Double" >0.5</attribute>
      <attribute name="FinalResponseThreshold"   class="java.lang.Double" >0.8</attribute>
      <attribute name="EvacLocationPreference" class="java.lang.String">Torquay Foreshore,790771,5752462</attribute>
      <attribute name="InvacLocationPreference" class="java.lang.String">Anglesea Shops,777471,5742412</attribute>
    </attributes>
    <plan selected="yes">
      <activity type="home" x="791546.14776787" y="5767146.18207393" end_time="09:37:00" />
      <leg mode="car" />
      <activity type="work" x="778907.540540978" y="5744529.97594215" end_time="13:01:00" />
      <leg mode="car" />
      <activity type="shops" x="770304.616107721" y="5738003.41901043" end_time="19:25:00" />
      <leg mode="car" />
      <activity type="home" x="791546.14776787" y="5767146.18207393" />
    </plan>
  </person>

  

 <person  id= "9" >
    <attributes>
      <attribute name="BDIAgentType" class="java.lang.String" >io.github.agentsoz.ees.agents.bushfire.Resident</attribute>
      <attribute name="hasDependentsAtLocation" class="java.lang.String" ></attribute>
      <attribute name="InitialResponseThreshold" class="java.lang.Double" >0.3</attribute>
      <attribute name="FinalResponseThreshold"   class="java.lang.Double" >0.7</attribute>
      <attribute name="EvacLocationPreference" class="java.lang.String">Torquay Foreshore,790771,5752462</attribute>
      <attribute name="InvacLocationPreference" class="java.lang.String">Anglesea Shops,777471,5742412</attribute>
    </attributes>
    <plan selected="yes">
      <activity type="home" x="793495.278975959" y="5754537.54091948" end_time="09:02:00" />
      <leg mode="car" />
      <activity type="work" x="790117.90034352" y="5754764.55944767" end_time="13:13:00" />
      <leg mode="car" />
      <activity type="home" x="793495.278975959" y="5754537.54091948" end_time="14:41:00" />
      <leg mode="car" />
      <activity type="other" x="789861.480645674" y="5753138.57302227" end_time="17:23:00" />
      <leg mode="car" />
      <activity type="work" x="789925.234088988" y="5752561.70349854" end_time="21:51:00" />
      <leg mode="car" />
      <activity type="home" x="793495.278975959" y="5754537.54091948" />
    </plan>
  </person>

  

 <person  id= "10" >
    <attributes>
      <attribute name="BDIAgentType" class="java.lang.String" >io.github.agentsoz.ees.agents.bushfire.Resident</attribute>
      <attribute name="hasDependentsAtLocation" class="java.lang.String" ></attribute>
      <attribute name="InitialResponseThreshold" class="java.lang.Double" >0.8</attribute>
      <attribute name="FinalResponseThreshold"   class="java.lang.Double" >0.9</attribute>
      <attribute name="EvacLocationPreference" class="java.lang.String">Torquay Foreshore,790771,5752462</attribute>
      <attribute name="InvacLocationPreference" class="java.lang.String">Anglesea Shops,777471,5742412</attribute>
    </attributes>
    <plan selected="yes">
      <activity type="home" x="790792.888270602" y="5766880.74152204" end_time="13:20:00" />
      <leg mode="car" />
      <activity type="work" x="789805.629221789" y="5754683.49809985" end_time="17:40:00" />
      <leg mode="car" />
      <activity type="home" x="790792.888270602" y="5766880.74152204" />
    </plan>
  </person>

  

 <person  id= "11" >
    <attributes>
      <attribute name="BDIAgentType" class="java.lang.String" >io.github.agentsoz.ees.agents.bushfire.Resident</attribute>
      <attribute name="hasDependentsAtLocation" class="java.lang.String" ></attribute>
      <attribute name="InitialResponseThreshold" class="java.lang.Double" >0.1</attribute>
      <attribute name="FinalResponseThreshold"   class="java.lang.Double" >0.5</attribute>
      <attribute name="EvacLocationPreference" class="java.lang.String">Torquay Foreshore,790771,5752462</attribute>
      <attribute name="InvacLocationPreference" class="java.lang.String">Anglesea Shops,777471,5742412</attribute>
    </attributes>
    <plan selected="yes">
      <activity type="home" x="790809.859428517" y="5768035.47008971" end_time="06:25:00" />
      <leg mode="car" />
      <activity type="shops" x="771136.11027124" y="5738738.72647331" end_time="09:12:00" />
      <leg mode="car" />
      <activity type="work" x="770408.733218234" y="5738045.9648825" end_time="17:51:00" />
      <leg mode="car" />
      <activity type="shops" x="770304.616107721" y="5738003.41901043" end_time="18:31:00" />
      <leg mode="car" />
      <activity type="other" x="771396.301080196" y="5738862.70157473" end_time="20:09:00" />
      <leg mode="car" />
      <activity type="home" x="790809.859428517" y="5768035.47008971" />
    </plan>
  </person>

  

 <person  id= "12" >
    <attributes>
      <attribute name="BDIAgentType" class="java.lang.String" >io.github.agentsoz.ees.agents.bushfire.Resident</attribute>
      <attribute name="hasDependentsAtLocation" class="java.lang.String" ></attribute>
      <attribute name="InitialResponseThreshold" class="java.lang.Double" >0.7</attribute>
      <attribute name="FinalResponseThreshold"   class="java.lang.Double" >0.9</attribute>
      <attribute name="EvacLocationPreference" class="java.lang.String">Torquay Foreshore,790771,5752462</attribute>
      <attribute name="InvacLocationPreference" class="java.lang.String">Anglesea Shops,777471,5742412</attribute>
    </attributes>
    <plan selected="yes">
      <activity type="home" x="790670.075796681" y="5772320.54476271" end_time="00:01:00" />
      <leg mode="car" />
      <activity type="work" x="759288.197405271" y="5730271.2215411" end_time="05:06:00" />
      <leg mode="car" />
      <activity type="home" x="790670.075796681" y="5772320.54476271" end_time="10:22:00" />
      <leg mode="car" />
      <activity type="work" x="759304.083764353" y="5730247.25466383" end_time="15:05:00" />
      <leg mode="car" />
      <activity type="shops" x="759297.391049171" y="5730163.43371706" end_time="17:01:00" />
      <leg mode="car" />
      <activity type="home" x="790670.075796681" y="5772320.54476271" />
    </plan>
  </person>

  

 <person  id= "13" >
    <attributes>
      <attribute name="BDIAgentType" class="java.lang.String" >io.github.agentsoz.ees.agents.bushfire.Resident</attribute>
      <attribute name="hasDependentsAtLocation" class="java.lang.String" ></attribute>
      <attribute name="InitialResponseThreshold" class="java.lang.Double" >0.9</attribute>
      <attribute name="FinalResponseThreshold"   class="java.lang.Double" >0.9</attribute>
      <attribute name="EvacLocationPreference" class="java.lang.String">Torquay Foreshore,790771,5752462</attribute>
      <attribute name="InvacLocationPreference" class="java.lang.String">Anglesea Shops,777471,5742412</attribute>
    </attributes>
    <plan selected="yes">
      <activity type="home" x="791701.85053529" y="5766964.4454802" end_time="08:11:00" />
      <leg mode="car" />
      <activity type="work" x="778582.406265931" y="5744323.77036824" end_time="12:08:00" />
      <leg mode="car" />
      <activity type="shops" x="771136.11027124" y="5738738.72647331" end_time="14:10:00" />
      <leg mode="car" />
      <activity type="other" x="778707.911695857" y="5745384.49367177" end_time="16:42:00" />
      <leg mode="car" />
      <activity type="home" x="791701.85053529" y="5766964.4454802" />
    </plan>
  </person>

  

 <person  id= "14" >
    <attributes>
      <attribute name="BDIAgentType" class="java.lang.String" >io.github.agentsoz.ees.agents.bushfire.Resident</attribute>
      <attribute name="hasDependentsAtLocation" class="java.lang.String" >776901.312090453,5742940.57943073</attribute>
      <attribute name="InitialResponseThreshold" class="java.lang.Double" >0.2</attribute>
      <attribute name="FinalResponseThreshold"   class="java.lang.Double" >0.3</attribute>
      <attribute name="EvacLocationPreference" class="java.lang.String">Torquay Foreshore,790771,5752462</attribute>
      <attribute name="InvacLocationPreference" class="java.lang.String">Anglesea Shops,777471,5742412</attribute>
    </attributes>
    <plan selected="yes">
      <activity type="home" x="776901.526450375" y="5742939.95666815" end_time="09:55:00" />
      <leg mode="car" />
      <activity type="work" x="770440.66549888" y="5738068.22089847" end_time="16:34:00" />
      <leg mode="car" />
      <activity type="home" x="776901.526450375" y="5742939.95666815" />
    </plan>
  </person>

  

 <person  id= "15" >
    <attributes>
      <attribute name="BDIAgentType" class="java.lang.String" >io.github.agentsoz.ees.agents.bushfire.Resident</attribute>
      <attribute name="hasDependentsAtLocation" class="java.lang.String" ></attribute>
      <attribute name="InitialResponseThreshold" class="java.lang.Double" >0.4</attribute>
      <attribute name="FinalResponseThreshold"   class="java.lang.Double" >0.7</attribute>
      <attribute name="EvacLocationPreference" class="java.lang.String">Torquay Foreshore,790771,5752462</attribute>
      <attribute name="InvacLocationPreference" class="java.lang.String">Anglesea Shops,777471,5742412</attribute>
    </attributes>
    <plan selected="yes">
      <activity type="home" x="760235.270726479" y="5731952.88972928" end_time="10:29:00" />
      <leg mode="car" />
      <activity type="shops" x="790610.33310894" y="5751830.77249923" end_time="13:21:00" />
      <leg mode="car" />
      <activity type="work" x="770414.805305086" y="5738048.92184389" end_time="16:42:00" />
      <leg mode="car" />
      <activity type="shops" x="771117.511429056" y="5738680.57730346" end_time="20:52:00" />
      <leg mode="car" />
      <activity type="home" x="760235.270726479" y="5731952.88972928" />
    </plan>
  </person>

  

 <person  id= "16" >
    <attributes>
      <attribute name="BDIAgentType" class="java.lang.String" >io.github.agentsoz.ees.agents.bushfire.Resident</attribute>
      <attribute name="hasDependentsAtLocation" class="java.lang.String" ></attribute>
      <attribute name="InitialResponseThreshold" class="java.lang.Double" >0.4</attribute>
      <attribute name="FinalResponseThreshold"   class="java.lang.Double" >0.6</attribute>
      <attribute name="EvacLocationPreference" class="java.lang.String">Torquay Foreshore,790771,5752462</attribute>
      <attribute name="InvacLocationPreference" class="java.lang.String">Anglesea Shops,777471,5742412</attribute>
    </attributes>
    <plan selected="yes">
      <activity type="home" x="790776.595539202" y="5752830.81303325" end_time="02:03:00" />
      <leg mode="car" />
      <activity type="other" x="771396.301080196" y="5738862.70157473" end_time="05:25:00" />
      <leg mode="car" />
      <activity type="home" x="790776.595539202" y="5752830.81303325" end_time="09:17:00" />
      <leg mode="car" />
      <activity type="work" x="770427.693470059" y="5738062.11264301" end_time="16:38:00" />
      <leg mode="car" />
      <activity type="shops" x="790456.94592737" y="5752061.92716746" end_time="18:02:00" />
      <leg mode="car" />
      <activity type="other" x="789861.480645674" y="5753138.57302227" end_time="21:53:00" />
      <leg mode="car" />
      <activity type="home" x="790776.595539202" y="5752830.81303325" />
    </plan>
  </person>

  

 <person  id= "17" >
    <attributes>
      <attribute name="BDIAgentType" class="java.lang.String" >io.github.agentsoz.ees.agents.bushfire.Resident</attribute>
      <attribute name="hasDependentsAtLocation" class="java.lang.String" >789035.202963241,5751906.92782956</attribute>
      <attribute name="InitialResponseThreshold" class="java.lang.Double" >0.3</attribute>
      <attribute name="FinalResponseThreshold"   class="java.lang.Double" >0.7</attribute>
      <attribute name="EvacLocationPreference" class="java.lang.String">Torquay Foreshore,790771,5752462</attribute>
      <attribute name="InvacLocationPreference" class="java.lang.String">Anglesea Shops,777471,5742412</attribute>
    </attributes>
    <plan selected="yes">
      <activity type="home" x="789035.528528204" y="5751905.96931737" end_time="03:30:00" />
      <leg mode="car" />
      <activity type="other" x="789816.421674447" y="5753213.33592403" end_time="04:07:00" />
      <leg mode="car" />
      <activity type="home" x="789035.528528204" y="5751905.96931737" end_time="08:31:00" />
      <leg mode="car" />
      <activity type="beach" x="790560.824945767" y="5751343.63519774" end_time="11:17:00" />
      <leg mode="car" />
      <activity type="work" x="789934.199663983" y="5754591.22842006" end_time="15:53:00" />
      <leg mode="car" />
      <activity type="shops" x="790677.713811583" y="5752144.63032102" end_time="16:04:00" />
      <leg mode="car" />
      <activity type="home" x="789035.528528204" y="5751905.96931737" end_time="23:34:00" />
      <leg mode="car" />
      <activity type="other" x="778707.911695857" y="5745384.49367177" end_time="23:59:00" />
      <leg mode="car" />
      <activity type="home" x="789035.528528204" y="5751905.96931737" />
    </plan>
  </person>

  

 <person  id= "18" >
    <attributes>
      <attribute name="BDIAgentType" class="java.lang.String" >io.github.agentsoz.ees.agents.bushfire.Resident</attribute>
      <attribute name="hasDependentsAtLocation" class="java.lang.String" ></attribute>
      <attribute name="InitialResponseThreshold" class="java.lang.Double" >0.6</attribute>
      <attribute name="FinalResponseThreshold"   class="java.lang.Double" >0.8</attribute>
      <attribute name="EvacLocationPreference" class="java.lang.String">Torquay Foreshore,790771,5752462</attribute>
      <attribute name="InvacLocationPreference" class="java.lang.String">Anglesea Shops,777471,5742412</attribute>
    </attributes>
    <plan selected="yes">
      <activity type="home" x="792748.758565358" y="5754325.64867425" end_time="08:49:00" />
      <leg mode="car" />
      <activity type="work" x="789815.868967721" y="5752821.81748508" end_time="13:47:00" />
      <leg mode="car" />
      <activity type="beach" x="790040.719763306" y="5750947.02859008" end_time="15:48:00" />
      <leg mode="car" />
      <activity type="shops" x="771132.127075639" y="5738756.72200742" end_time="16:34:00" />
      <leg mode="car" />
      <activity type="home" x="792748.758565358" y="5754325.64867425" end_time="21:10:00" />
      <leg mode="car" />
      <activity type="work" x="771181.272486644" y="5738983.61474407" end_time="23:59:00" />
      <leg mode="car" />
      <activity type="home" x="792748.758565358" y="5754325.64867425" />
    </plan>
  </person>

  

 <person  id= "19" >
    <attributes>
      <attribute name="BDIAgentType" class="java.lang.String" >io.github.agentsoz.ees.agents.bushfire.Resident</attribute>
      <attribute name="hasDependentsAtLocation" class="java.lang.String" >759285.2573879,5731174.9672247</attribute>
      <attribute name="InitialResponseThreshold" class="java.lang.Double" >0.2</attribute>
      <attribute name="FinalResponseThreshold"   class="java.lang.Double" >0.9</attribute>
      <attribute name="EvacLocationPreference" class="java.lang.String">Torquay Foreshore,790771,5752462</attribute>
      <attribute name="InvacLocationPreference" class="java.lang.String">Anglesea Shops,777471,5742412</attribute>
    </attributes>
    <plan selected="yes">
      <activity type="home" x="759286.000334268" y="5731173.99118772" end_time="08:08:00" />
      <leg mode="car" />
      <activity type="work" x="770408.733218234" y="5738045.9648825" end_time="13:43:00" />
      <leg mode="car" />
      <activity type="shops" x="770304.616107721" y="5738003.41901043" end_time="14:20:00" />
      <leg mode="car" />
      <activity type="beach" x="791120.803641559" y="5752820.35296198" end_time="16:05:00" />
      <leg mode="car" />
      <activity type="shops" x="770326.526265268" y="5738019.45766535" end_time="19:13:00" />
      <leg mode="car" />
      <activity type="home" x="759286.000334268" y="5731173.99118772" />
    </plan>
  </person>

  

 <person  id= "20" >
    <attributes>
      <attribute name="BDIAgentType" class="java.lang.String" >io.github.agentsoz.ees.agents.bushfire.Resident</attribute>
      <attribute name="hasDependentsAtLocation" class="java.lang.String" ></attribute>
      <attribute name="InitialResponseThreshold" class="java.lang.Double" >0.9</attribute>
      <attribute name="FinalResponseThreshold"   class="java.lang.Double" >0.8</attribute>
      <attribute name="EvacLocationPreference" class="java.lang.String">Torquay Foreshore,790771,5752462</attribute>
      <attribute name="InvacLocationPreference" class="java.lang.String">Anglesea Shops,777471,5742412</attribute>
    </attributes>
    <plan selected="yes">
      <activity type="home" x="758955.630287391" y="5730080.972961" end_time="08:59:00" />
      <leg mode="car" />
      <activity type="shops" x="759297.391049171" y="5730163.43371706" end_time="11:05:00" />
      <leg mode="car" />
      <activity type="home" x="758955.630287391" y="5730080.972961" end_time="15:17:00" />
      <leg mode="car" />
      <activity type="shops" x="759292.957293393" y="5730046.69255781" end_time="16:46:00" />
      <leg mode="car" />
      <activity type="work" x="779004.534492369" y="5744505.30999418" end_time="20:32:00" />
      <leg mode="car" />
      <activity type="shops" x="778190.084385339" y="5744106.22590521" end_time="22:03:00" />
      <leg mode="car" />
      <activity type="home" x="758955.630287391" y="5730080.972961" />
    </plan>
  </person>

  

 <person  id= "21" >
    <attributes>
      <attribute name="BDIAgentType" class="java.lang.String" >io.github.agentsoz.ees.agents.bushfire.Resident</attribute>
      <attribute name="hasDependentsAtLocation" class="java.lang.String" >793085.706341274,5769743.67445367</attribute>
      <attribute name="InitialResponseThreshold" class="java.lang.Double" >0.3</attribute>
      <attribute name="FinalResponseThreshold"   class="java.lang.Double" >0.5</attribute>
      <attribute name="EvacLocationPreference" class="java.lang.String">Torquay Foreshore,790771,5752462</attribute>
      <attribute name="InvacLocationPreference" class="java.lang.String">Anglesea Shops,777471,5742412</attribute>
    </attributes>
    <plan selected="yes">