<?xml version="1.0" encoding="utf-8"?>
  <!DOCTYPE population SYSTEM "http://www.matsim.org/files/dtd/population_v6.dtd">
  <population>
  <!-- ====================================================================== -->

 <person  id= "0" >
    <attributes>
      <attribute name="BDIAgentType" class="java.lang.String" >io.github.agentsoz.ees.agents.bushfire.Resident</attribute>
      <attribute name="HasDependentsAtLocation" class="java.lang.String" ></attribute>
      <attribute name="InitialResponseThreshold" class="java.lang.Double" >0.7</attribute>
      <attribute name="FinalResponseThreshold"   class="java.lang.Double" >0.9</attribute>
      <attribute name="WillGoHomeAfterVisitingDependents" class="java.lang.Boolean" >false</attribute>
      <attribute name="WillGoHomeBeforeLeaving" class="java.lang.Boolean" >true</attribute>
      <attribute name="EvacLocationPreference" class="java.lang.String">Anglesea Hotel,778370.129974752,5744461.62446548</attribute>
      <attribute name="InvacLocationPreference" class="java.lang.String">c("", ""),c(792200.200666706, 792200.200666706),c(5755740.77176661, 5755740.77176661)</attribute>
    </attributes>
    <plan selected="yes">
      <activity type="home" x="790444.546817616" y="5752930.55868864" end_time="09:57:00" />
      <leg mode="car" />
      <activity type="work" x="789834.973197454" y="5752597.95024277" end_time="21:02:00" />
      <leg mode="car" />
      <activity type="home" x="790444.546817616" y="5752930.55868864" />
    </plan>
  </person>

  

 <person  id= "1" >
    <attributes>
      <attribute name="BDIAgentType" class="java.lang.String" >io.github.agentsoz.ees.agents.bushfire.Resident</attribute>
      <attribute name="HasDependentsAtLocation" class="java.lang.String" ></attribute>
      <attribute name="InitialResponseThreshold" class="java.lang.Double" >0.4</attribute>
      <attribute name="FinalResponseThreshold"   class="java.lang.Double" >0.8</attribute>
      <attribute name="WillGoHomeAfterVisitingDependents" class="java.lang.Boolean" >false</attribute>
      <attribute name="WillGoHomeBeforeLeaving" class="java.lang.Boolean" >true</attribute>
      <attribute name="EvacLocationPreference" class="java.lang.String">Anglesea Shops,778567.629793594,5744455.95718697</attribute>
      <attribute name="InvacLocationPreference" class="java.lang.String">,788231.827686886,5750808.0608502</attribute>
    </attributes>
    <plan selected="yes">
      <activity type="home" x="788130.027527115" y="5750322.86250037" end_time="09:36:00" />
      <leg mode="car" />
      <activity type="shops" x="790745.170473677" y="5752112.32413089" end_time="13:18:00" />
      <leg mode="car" />
      <activity type="other" x="771396.301080196" y="5738862.70157473" end_time="14:58:00" />
      <leg mode="car" />
      <activity type="home" x="788130.027527115" y="5750322.86250037" end_time="17:50:00" />
      <leg mode="car" />
      <activity type="work" x="770419.298108957" y="5738055.52018284" end_time="21:32:00" />
      <leg mode="car" />
      <activity type="home" x="788130.027527115" y="5750322.86250037" />
    </plan>
  </person>

  

 <person  id= "2" >
    <attributes>
      <attribute name="BDIAgentType" class="java.lang.String" >io.github.agentsoz.ees.agents.bushfire.Resident</attribute>
      <attribute name="HasDependentsAtLocation" class="java.lang.String" >790708.03736987,5754066.86176655</attribute>
      <attribute name="InitialResponseThreshold" class="java.lang.Double" >0.1</attribute>
      <attribute name="FinalResponseThreshold"   class="java.lang.Double" >0.6</attribute>
      <attribute name="WillGoHomeAfterVisitingDependents" class="java.lang.Boolean" >false</attribute>
      <attribute name="WillGoHomeBeforeLeaving" class="java.lang.Boolean" >false</attribute>
      <attribute name="EvacLocationPreference" class="java.lang.String">Surf Club,769139.399818792,5737680.05099942</attribute>
      <attribute name="InvacLocationPreference" class="java.lang.String">,790894.719887596,5753891.31030722</attribute>
    </attributes>
    <plan selected="yes">
      <activity type="home" x="790712.549414196" y="5754050.21483111" end_time="02:07:00" />
      <leg mode="car" />
      <activity type="other" x="789816.421674447" y="5753213.33592403" end_time="04:12:00" />
      <leg mode="car" />
      <activity type="work" x="789711.608237217" y="5752825.53879836" end_time="21:56:00" />
      <leg mode="car" />
      <activity type="home" x="790712.549414196" y="5754050.21483111" />
    </plan>
  </person>

  

 <person  id= "3" >
    <attributes>
      <attribute name="BDIAgentType" class="java.lang.String" >io.github.agentsoz.ees.agents.bushfire.Resident</attribute>
      <attribute name="HasDependentsAtLocation" class="java.lang.String" ></attribute>
      <attribute name="InitialResponseThreshold" class="java.lang.Double" >0.2</attribute>
      <attribute name="FinalResponseThreshold"   class="java.lang.Double" >0.5</attribute>
      <attribute name="WillGoHomeAfterVisitingDependents" class="java.lang.Boolean" >false</attribute>
      <attribute name="WillGoHomeBeforeLeaving" class="java.lang.Boolean" >false</attribute>
      <attribute name="EvacLocationPreference" class="java.lang.String">Geelong,793176.81224368,5768999.20766906</attribute>
      <attribute name="InvacLocationPreference" class="java.lang.String">Anglesea 36,777183.2489159,5744650.57280355</attribute>
    </attributes>
    <plan selected="yes">
      <activity type="home" x="776446.113044788" y="5743458.83549756" end_time="04:40:00" />
      <leg mode="car" />
      <activity type="work" x="779043.721912658" y="5744521.18104089" end_time="13:36:00" />
      <leg mode="car" />
      <activity type="shops" x="770304.616107721" y="5738003.41901043" end_time="14:19:00" />
      <leg mode="car" />
      <activity type="home" x="776446.113044788" y="5743458.83549756" end_time="20:09:00" />
      <leg mode="car" />
      <activity type="other" x="778707.911695857" y="5745384.49367177" end_time="22:01:00" />
      <leg mode="car" />
      <activity type="home" x="776446.113044788" y="5743458.83549756" />
    </plan>
  </person>

  

 <person  id= "4" >
    <attributes>
      <attribute name="BDIAgentType" class="java.lang.String" >io.github.agentsoz.ees.agents.bushfire.Resident</attribute>
      <attribute name="HasDependentsAtLocation" class="java.lang.String" ></attribute>
      <attribute name="InitialResponseThreshold" class="java.lang.Double" >0.3</attribute>
      <attribute name="FinalResponseThreshold"   class="java.lang.Double" >0.5</attribute>
      <attribute name="WillGoHomeAfterVisitingDependents" class="java.lang.Boolean" >false</attribute>
      <attribute name="WillGoHomeBeforeLeaving" class="java.lang.Boolean" >false</attribute>
      <attribute name="EvacLocationPreference" class="java.lang.String">River Mouth,770470.330021782,5737633.68894544</attribute>
      <attribute name="InvacLocationPreference" class="java.lang.String">,790894.719887596,5753891.31030722</attribute>
    </attributes>
    <plan selected="yes">
      <activity type="home" x="791556.773898355" y="5754140.53410649" end_time="09:15:00" />
      <leg mode="car" />
      <activity type="work" x="789711.608237217" y="5752825.53879836" end_time="12:44:00" />
      <leg mode="car" />
      <activity type="beach" x="790568.951774962" y="5751325.2355685" end_time="16:04:00" />
      <leg mode="car" />
      <activity type="work" x="771181.272486644" y="5738983.61474407" end_time="20:56:00" />
      <leg mode="car" />
      <activity type="home" x="791556.773898355" y="5754140.53410649" />
    </plan>
  </person>

  

 <person  id= "5" >
    <attributes>
      <attribute name="BDIAgentType" class="java.lang.String" >io.github.agentsoz.ees.agents.bushfire.Resident</attribute>
      <attribute name="HasDependentsAtLocation" class="java.lang.String" ></attribute>
      <attribute name="InitialResponseThreshold" class="java.lang.Double" >0.3</attribute>
      <attribute name="FinalResponseThreshold"   class="java.lang.Double" >0.6</attribute>
      <attribute name="WillGoHomeAfterVisitingDependents" class="java.lang.Boolean" >false</attribute>
      <attribute name="WillGoHomeBeforeLeaving" class="java.lang.Boolean" >false</attribute>
      <attribute name="EvacLocationPreference" class="java.lang.String">,725946.634709856,5753152.68589706</attribute>
      <attribute name="InvacLocationPreference" class="java.lang.String">Aireys Inlet 3,770898.423520674,5738072.75182237</attribute>
    </attributes>
    <plan selected="yes">
      <activity type="home" x="771328.087304097" y="5738795.68910685" end_time="08:31:00" />
      <leg mode="car" />
      <activity type="work" x="778882.78709929" y="5744513.27611507" end_time="17:37:00" />
      <leg mode="car" />
      <activity type="shops" x="778190.084385339" y="5744106.22590521" end_time="18:13:00" />
      <leg mode="car" />
      <activity type="home" x="771328.087304097" y="5738795.68910685" />
    </plan>
  </person>

  

 <person  id= "6" >
    <attributes>
      <attribute name="BDIAgentType" class="java.lang.String" >io.github.agentsoz.ees.agents.bushfire.Resident</attribute>
      <attribute name="HasDependentsAtLocation" class="java.lang.String" ></attribute>
      <attribute name="InitialResponseThreshold" class="java.lang.Double" >0.4</attribute>
      <attribute name="FinalResponseThreshold"   class="java.lang.Double" >0.4</attribute>
      <attribute name="WillGoHomeAfterVisitingDependents" class="java.lang.Boolean" >false</attribute>
      <attribute name="WillGoHomeBeforeLeaving" class="java.lang.Boolean" >false</attribute>
      <attribute name="EvacLocationPreference" class="java.lang.String">,792089.979423257,5753648.33536621</attribute>
      <attribute name="InvacLocationPreference" class="java.lang.String">Aireys Inlet 16,770899.96975986,5739484.40945055</attribute>
    </attributes>
    <plan selected="yes">
      <activity type="home" x="770940.055572784" y="5739489.83817321" end_time="08:46:00" />
      <leg mode="car" />
      <activity type="work" x="770440.66549888" y="5738068.22089847" end_time="13:22:00" />
      <leg mode="car" />
      <activity type="other" x="789848.578586559" y="5753094.78647086" end_time="14:59:00" />
      <leg mode="car" />
      <activity type="home" x="770940.055572784" y="5739489.83817321" end_time="17:29:00" />
      <leg mode="car" />
      <activity type="other" x="789848.578586559" y="5753094.78647086" end_time="18:51:00" />
      <leg mode="car" />
      <activity type="shops" x="778190.084385339" y="5744106.22590521" end_time="20:50:00" />
      <leg mode="car" />
      <activity type="home" x="770940.055572784" y="5739489.83817321" />
    </plan>
  </person>

  

 <person  id= "7" >
    <attributes>
      <attribute name="BDIAgentType" class="java.lang.String" >io.github.agentsoz.ees.agents.bushfire.Resident</attribute>
      <attribute name="HasDependentsAtLocation" class="java.lang.String" ></attribute>
      <attribute name="InitialResponseThreshold" class="java.lang.Double" >0.8</attribute>
      <attribute name="FinalResponseThreshold"   class="java.lang.Double" >0.9</attribute>
      <attribute name="WillGoHomeAfterVisitingDependents" class="java.lang.Boolean" >false</attribute>
      <attribute name="WillGoHomeBeforeLeaving" class="java.lang.Boolean" >true</attribute>
      <attribute name="EvacLocationPreference" class="java.lang.String">Surf Club,769139.399818792,5737680.05099942</attribute>
      <attribute name="InvacLocationPreference" class="java.lang.String">,790420.895905102,5752508.39440602</attribute>
    </attributes>
    <plan selected="yes">
      <activity type="home" x="789885.596918071" y="5752293.42147724" end_time="09:58:00" />
      <leg mode="car" />
      <activity type="work" x="779072.591434244" y="5744566.5299771" end_time="13:34:00" />
      <leg mode="car" />
      <activity type="home" x="789885.596918071" y="5752293.42147724" end_time="14:49:00" />
      <leg mode="car" />
      <activity type="beach" x="790568.951774962" y="5751325.2355685" end_time="18:20:00" />
      <leg mode="car" />
      <activity type="home" x="789885.596918071" y="5752293.42147724" />
    </plan>
  </person>

  

 <person  id= "8" >
    <attributes>
      <attribute name="BDIAgentType" class="java.lang.String" >io.github.agentsoz.ees.agents.bushfire.Resident</attribute>
      <attribute name="HasDependentsAtLocation" class="java.lang.String" >777778.751173143,5744178.39456654</attribute>
      <attribute name="InitialResponseThreshold" class="java.lang.Double" >0.3</attribute>
      <attribute name="FinalResponseThreshold"   class="java.lang.Double" >0.9</attribute>
      <attribute name="WillGoHomeAfterVisitingDependents" class="java.lang.Boolean" >true</attribute>
      <attribute name="WillGoHomeBeforeLeaving" class="java.lang.Boolean" >false</attribute>
      <attribute name="EvacLocationPreference" class="java.lang.String">,768145.215009431,5778372.30932458</attribute>
      <attribute name="InvacLocationPreference" class="java.lang.String">Anglesea River,778332.606434002,5743835.27909509</attribute>
    </attributes>
    <plan selected="yes">
      <activity type="home" x="777779.77006112" y="5744166.22942336" end_time="09:26:00" />
      <leg mode="car" />
      <activity type="beach" x="778614.794764519" y="5743470.87325903" end_time="11:58:00" />
      <leg mode="car" />
      <activity type="other" x="778707.911695857" y="5745384.49367177" end_time="13:18:00" />
      <leg mode="car" />
      <activity type="work" x="770427.693470059" y="5738062.11264301" end_time="23:59:00" />
      <leg mode="car" />
      <activity type="home" x="777779.77006112" y="5744166.22942336" />
    </plan>
  </person>

  

 <person  id= "9" >
    <attributes>
      <attribute name="BDIAgentType" class="java.lang.String" >io.github.agentsoz.ees.agents.bushfire.Resident</attribute>
      <attribute name="HasDependentsAtLocation" class="java.lang.String" ></attribute>
      <attribute name="InitialResponseThreshold" class="java.lang.Double" >0.4</attribute>
      <attribute name="FinalResponseThreshold"   class="java.lang.Double" >0.7</attribute>
      <attribute name="WillGoHomeAfterVisitingDependents" class="java.lang.Boolean" >false</attribute>
      <attribute name="WillGoHomeBeforeLeaving" class="java.lang.Boolean" >false</attribute>
      <attribute name="EvacLocationPreference" class="java.lang.String">,725946.634709856,5753152.68589706</attribute>
      <attribute name="InvacLocationPreference" class="java.lang.String">Anglesea 42,777937.96068881,5744539.96315965</attribute>
    </attributes>
    <plan selected="yes">
      <activity type="home" x="778054.584043527" y="5744293.33221615" end_time="08:17:00" />
      <leg mode="car" />
      <activity type="work" x="778582.406265931" y="5744323.77036824" end_time="17:35:00" />
      <leg mode="car" />
      <activity type="beach" x="778247.725118489" y="5743352.11543371" end_time="18:24:00" />
      <leg mode="car" />
      <activity type="shops" x="771115.470778359" y="5738664.67426718" end_time="20:33:00" />
      <leg mode="car" />
      <activity type="home" x="778054.584043527" y="5744293.33221615" />
    </plan>
  </person>

  

 <person  id= "10" >
    <attributes>
      <attribute name="BDIAgentType" class="java.lang.String" >io.github.agentsoz.ees.agents.bushfire.Resident</attribute>
      <attribute name="HasDependentsAtLocation" class="java.lang.String" ></attribute>
      <attribute name="InitialResponseThreshold" class="java.lang.Double" >0.9</attribute>
      <attribute name="FinalResponseThreshold"   class="java.lang.Double" >0.9</attribute>
      <attribute name="WillGoHomeAfterVisitingDependents" class="java.lang.Boolean" >false</attribute>
      <attribute name="WillGoHomeBeforeLeaving" class="java.lang.Boolean" >true</attribute>
      <attribute name="EvacLocationPreference" class="java.lang.String">Lorne 21,759384.918109419,5730417.76020269</attribute>
      <attribute name="InvacLocationPreference" class="java.lang.String">c("", ""),c(796231.808020352, 796231.808020352),c(5755871.48892035, 5755871.48892035)</attribute>
    </attributes>
    <plan selected="yes">
      <activity type="home" x="796180.096856646" y="5755790.86394863" end_time="12:43:00" />
      <leg mode="car" />
      <activity type="work" x="789949.515767737" y="5752727.32925397" end_time="16:01:00" />
      <leg mode="car" />
      <activity type="home" x="796180.096856646" y="5755790.86394863" />
    </plan>
  </person>

  

 <person  id= "11" >
    <attributes>
      <attribute name="BDIAgentType" class="java.lang.String" >io.github.agentsoz.ees.agents.bushfire.Resident</attribute>
      <attribute name="HasDependentsAtLocation" class="java.lang.String" ></attribute>
      <attribute name="InitialResponseThreshold" class="java.lang.Double" >0.7</attribute>
      <attribute name="FinalResponseThreshold"   class="java.lang.Double" >0.8</attribute>
      <attribute name="WillGoHomeAfterVisitingDependents" class="java.lang.Boolean" >false</attribute>
      <attribute name="WillGoHomeBeforeLeaving" class="java.lang.Boolean" >true</attribute>
      <attribute name="EvacLocationPreference" class="java.lang.String">Lorne 34,759271.09371883,5729851.2967029</attribute>
      <attribute name="InvacLocationPreference" class="java.lang.String">,791277.478874657,5753976.97934263</attribute>
    </attributes>
    <plan selected="yes">
      <activity type="home" x="790972.40881533" y="5754249.72497413" end_time="10:09:00" />
      <leg mode="car" />
      <activity type="shops" x="790478.066050413" y="5752065.07113524" end_time="12:17:00" />
      <leg mode="car" />
      <activity type="other" x="789861.480645674" y="5753138.57302227" end_time="14:57:00" />
      <leg mode="car" />
      <activity type="shops" x="790459.988865424" y="5752140.64212887" end_time="18:35:00" />
      <leg mode="car" />
      <activity type="home" x="790972.40881533" y="5754249.72497413" />
    </plan>
  </person>

  

 <person  id= "12" >
    <attributes>
      <attribute name="BDIAgentType" class="java.lang.String" >io.github.agentsoz.ees.agents.bushfire.Resident</attribute>
      <attribute name="HasDependentsAtLocation" class="java.lang.String" >790723.928676566,5753159.18900968</attribute>
      <attribute name="InitialResponseThreshold" class="java.lang.Double" >0.3</attribute>
      <attribute name="FinalResponseThreshold"   class="java.lang.Double" >0.5</attribute>
      <attribute name="WillGoHomeAfterVisitingDependents" class="java.lang.Boolean" >true</attribute>
      <attribute name="WillGoHomeBeforeLeaving" class="java.lang.Boolean" >false</attribute>
      <attribute name="EvacLocationPreference" class="java.lang.String">,768145.215009431,5778372.30932458</attribute>
      <attribute name="InvacLocationPreference" class="java.lang.String">,791118.102569293,5753461.09876635</attribute>
    </attributes>
    <plan selected="yes">
      <activity type="home" x="790736.759091524" y="5753139.26584868" end_time="00:01:00" />
      <leg mode="car" />
      <activity type="work" x="789923.018508151" y="5752720.5780789" end_time="05:40:00" />
      <leg mode="car" />
      <activity type="other" x="759157.839965405" y="5730302.57810009" end_time="08:03:00" />
      <leg mode="car" />
      <activity type="home" x="790736.759091524" y="5753139.26584868" end_time="10:29:00" />
      <leg mode="car" />
      <activity type="work" x="759288.197405271" y="5730271.2215411" end_time="14:24:00" />
      <leg mode="car" />
      <activity type="beach" x="778614.794764519" y="5743470.87325903" end_time="18:51:00" />
      <leg mode="car" />
      <activity type="home" x="790736.759091524" y="5753139.26584868" />
    </plan>
  </person>

  

 <person  id= "13" >
    <attributes>
      <attribute name="BDIAgentType" class="java.lang.String" >io.github.agentsoz.ees.agents.bushfire.Resident</attribute>
      <attribute name="HasDependentsAtLocation" class="java.lang.String" ></attribute>
      <attribute name="InitialResponseThreshold" class="java.lang.Double" >0.9</attribute>
      <attribute name="FinalResponseThreshold"   class="java.lang.Double" >0.9</attribute>
      <attribute name="WillGoHomeAfterVisitingDependents" class="java.lang.Boolean" >false</attribute>
      <attribute name="WillGoHomeBeforeLeaving" class="java.lang.Boolean" >false</attribute>
      <attribute name="EvacLocationPreference" class="java.lang.String">,790515.310544487,5753801.66301497</attribute>
      <attribute name="InvacLocationPreference" class="java.lang.String">Lorne 43,759383.047473417,5729651.57902676</attribute>
    </attributes>
    <plan selected="yes">
      <activity type="home" x="758658.366522136" y="5730776.43475806" end_time="09:56:00" />
      <leg mode="car" />
      <activity type="work" x="770440.66549888" y="5738068.22089847" end_time="12:40:00" />
      <leg mode="car" />
      <activity type="beach" x="778247.725118489" y="5743352.11543371" end_time="16:22:00" />
      <leg mode="car" />
      <activity type="shops" x="778190.084385339" y="5744106.22590521" end_time="21:16:00" />
      <leg mode="car" />
      <activity type="home" x="758658.366522136" y="5730776.43475806" />
    </plan>
  </person>

  

 <person  id= "14" >
    <attributes>
      <attribute name="BDIAgentType" class="java.lang.String" >io.github.agentsoz.ees.agents.bushfire.Resident</attribute>
      <attribute name="HasDependentsAtLocation" class="java.lang.String" ></attribute>
      <attribute name="InitialResponseThreshold" class="java.lang.Double" >0.1</attribute>
      <attribute name="FinalResponseThreshold"   class="java.lang.Double" >0.3</attribute>
      <attribute name="WillGoHomeAfterVisitingDependents" class="java.lang.Boolean" >false</attribute>
      <attribute name="WillGoHomeBeforeLeaving" class="java.lang.Boolean" >false</attribute>
      <attribute name="EvacLocationPreference" class="java.lang.String">,790894.719887596,5753891.31030722</attribute>
      <attribute name="InvacLocationPreference" class="java.lang.String">Lorne 30,758783.204945714,5730096.01981458</attribute>
    </attributes>
    <plan selected="yes">
      <activity type="home" x="758903.849032138" y="5729556.85400595" end_time="12:13:00" />
      <leg mode="car" />
      <activity type="other" x="759157.839965405" y="5730302.57810009" end_time="14:19:00" />
      <leg mode="car" />
      <activity type="shops" x="778209.304476109" y="5744067.28292208" end_time="17:17:00" />
      <leg mode="car" />
      <activity type="other" x="778707.911695857" y="5745384.49367177" end_time="18:33:00" />
      <leg mode="car" />
      <activity type="home" x="758903.849032138" y="5729556.85400595" />
    </plan>
  </person>

  

 <person  id= "15" >
    <attributes>
      <attribute name="BDIAgentType" class="java.lang.String" >io.github.agentsoz.ees.agents.bushfire.Resident</attribute>
      <attribute name="HasDependentsAtLocation" class="java.lang.String" >791324.823340301,5753615.21011997</attribute>
      <attribute name="InitialResponseThreshold" class="java.lang.Double" >0.3</attribute>
      <attribute name="FinalResponseThreshold"   class="java.lang.Double" >0.5</attribute>
      <attribute name="WillGoHomeAfterVisitingDependents" class="java.lang.Boolean" >false</attribute>
      <attribute name="WillGoHomeBeforeLeaving" class="java.lang.Boolean" >false</attribute>
      <attribute name="EvacLocationPreference" class="java.lang.String">,761683.361349673,5762954.93507857</attribute>
      <attribute name="InvacLocationPreference" class="java.lang.String">,791477.824726652,5753417.74149688</attribute>
    </attributes>
    <plan selected="yes">
      <activity type="home" x="791330.80825648" y="5753600.57474361" end_time="05:42:00" />
      <leg mode="car" />
      <activity type="work" x="778951.134301224" y="5744584.00662151" end_time="08:27:00" />
      <leg mode="car" />
      <activity type="home" x="791330.80825648" y="5753600.57474361" end_time="12:06:00" />
      <leg mode="car" />
      <activity type="work" x="778582.406265931" y="5744323.77036824" end_time="17:23:00" />
      <leg mode="car" />
      <activity type="home" x="791330.80825648" y="5753600.57474361" end_time="19:35:00" />
      <leg mode="car" />
      <activity type="shops" x="778518.482833781" y="5744475.12126124" end_time="20:40:00" />
      <leg mode="car" />
      <activity type="home" x="791330.80825648" y="5753600.57474361" />
    </plan>
  </person>

  

 <person  id= "16" >
    <attributes>
      <attribute name="BDIAgentType" class="java.lang.String" >io.github.agentsoz.ees.agents.bushfire.Resident</attribute>
      <attribute name="HasDependentsAtLocation" class="java.lang.String" ></attribute>
      <attribute name="InitialResponseThreshold" class="java.lang.Double" >0.8</attribute>
      <attribute name="FinalResponseThreshold"   class="java.lang.Double" >0.9</attribute>
      <attribute name="WillGoHomeAfterVisitingDependents" class="java.lang.Boolean" >false</attribute>
      <attribute name="WillGoHomeBeforeLeaving" class="java.lang.Boolean" >false</attribute>
      <attribute name="EvacLocationPreference" class="java.lang.String">Anglesea Main Beach,778553.892547027,5743480.65991347</attribute>
      <attribute name="InvacLocationPreference" class="java.lang.String">Lorne 10,759380.518319403,5731303.59740134</attribute>
    </attributes>
    <plan selected="yes">
      <activity type="home" x="759372.885799477" y="5731341.19019736" end_time="03:50:00" />
      <leg mode="car" />
      <activity type="other" x="789848.578586559" y="5753094.78647086" end_time="04:55:00" />
      <leg mode="car" />
      <activity type="work" x="789711.608237217" y="5752825.53879836" end_time="12:01:00" />
      <leg mode="car" />
      <activity type="shops" x="790591.152859536" y="5751729.2571063" end_time="15:11:00" />
      <leg mode="car" />
      <activity type="beach" x="790813.932219314" y="5752646.56536696" end_time="17:26:00" />
      <leg mode="car" />
      <activity type="home" x="759372.885799477" y="5731341.19019736" end_time="23:32:00" />
      <leg mode="car" />
      <activity type="other" x="789848.578586559" y="5753094.78647086" end_time="23:59:00" />
      <leg mode="car" />
      <activity type="home" x="759372.885799477" y="5731341.19019736" />
    </plan>
  </person>

  

 <person  id= "17" >
    <attributes>
      <attribute name="BDIAgentType" class="java.lang.String" >io.github.agentsoz.ees.agents.bushfire.Resident</attribute>
      <attribute name="HasDependentsAtLocation" class="java.lang.String" ></attribute>
      <attribute name="InitialResponseThreshold" class="java.lang.Double" >0.4</attribute>
      <attribute name="FinalResponseThreshold"   class="java.lang.Double" >0.9</attribute>
      <attribute name="WillGoHomeAfterVisitingDependents" class="java.lang.Boolean" >false</attribute>
      <attribute name="WillGoHomeBeforeLeaving" class="java.lang.Boolean" >false</attribute>
      <attribute name="EvacLocationPreference" class="java.lang.String">,725946.634709856,5753152.68589706</attribute>
      <attribute name="InvacLocationPreference" class="java.lang.String">,789027.924050622,5751720.28015128</attribute>
    </attributes>
    <plan selected="yes">
      <activity type="home" x="788964.723480642" y="5751758.19324925" end_time="09:26:00" />
      <leg mode="car" />
      <activity type="shops" x="790638.050911312" y="5752234.06713154" end_time="11:52:00" />
      <leg mode="car" />
      <activity type="other" x="789777.66185784" y="5753252.7750329" end_time="12:01:00" />
      <leg mode="car" />
      <activity type="home" x="788964.723480642" y="5751758.19324925" end_time="17:29:00" />
      <leg mode="car" />
      <activity type="work" x="789856.778527328" y="5754684.78372949" end_time="20:43:00" />
      <leg mode="car" />
      <activity type="home" x="788964.723480642" y="5751758.19324925" end_time="23:57:00" />
      <leg mode="car" />
      <activity type="other" x="789816.421674447" y="5753213.33592403" end_time="23:59:00" />
      <leg mode="car" />
      <activity type="home" x="788964.723480642" y="5751758.19324925" />
    </plan>
  </person>

  

 <person  id= "18" >
    <attributes>
      <attribute name="BDIAgentType" class="java.lang.String" >io.github.agentsoz.ees.agents.bushfire.Resident</attribute>
      <attribute name="HasDependentsAtLocation" class="java.lang.String" >759825.279196332,5731231.13131893</attribute>
      <attribute name="InitialResponseThreshold" class="java.lang.Double" >0.3</attribute>
      <attribute name="FinalResponseThreshold"   class="java.lang.Double" >0.8</attribute>
      <attribute name="WillGoHomeAfterVisitingDependents" class="java.lang.Boolean" >false</attribute>
      <attribute name="WillGoHomeBeforeLeaving" class="java.lang.Boolean" >false</attribute>
      <attribute name="EvacLocationPreference" class="java.lang.String">Anglesea Hotel,778370.129974752,5744461.62446548</attribute>
      <attribute name="InvacLocationPreference" class="java.lang.String">Lorne 7,759803.874970449,5731201.51796681</attribute>
    </attributes>
    <plan selected="yes">
      <activity type="home" x="759835.48308032" y="5731215.57643302" end_time="09:35:00" />
      <leg mode="car" />
      <activity type="work" x="759299.555948288" y="5730284.2517027" end_time="13:56:00" />
      <leg mode="car" />
      <activity type="beach" x="790560.824945767" y="5751343.63519774" end_time="15:55:00" />
      <leg mode="car" />
      <activity type="shops" x="790251.07186009" y="5752186.88566304" end_time="18:50:00" />
      <leg mode="car" />
      <activity type="home" x="759835.48308032" y="5731215.57643302" />
    </plan>
  </person>

  

 <person  id= "19" >
    <attributes>
      <attribute name="BDIAgentType" class="java.lang.String" >io.github.agentsoz.ees.agents.bushfire.Resident</attribute>