<?xml version="1.0" encoding="utf-8"?>
<!DOCTYPE population SYSTEM "http://www.matsim.org/files/dtd/population_v5.dtd">

<population>

<!-- ====================================================================== -->

	<person id="1" employed="no">
		<plan selected="yes">
			<act type="home" x="342634.3462512265" y="5821244.754302569" end_time="06:00:00" />
			<leg mode="car">
			</leg>
			<act type="home" x="342634.3462512265" y="5821244.754302569" />
		</plan>

	</person>

<!-- ====================================================================== -->

	<person id="10" employed="no">
		<plan selected="yes">
			<act type="home" x="341922.954674529" y="5820931.221280029" end_time="06:00:00" />
			<leg mode="car">
			</leg>
			<act type="home" x="341922.954674529" y="5820931.221280029" />
		</plan>

	</person>

<!-- ====================================================================== -->

	<person id="100" employed="no">
		<plan selected="yes">
			<act type="home" x="344126.28057022684" y="5821348.58021455" end_time="06:00:00" />
			<leg mode="car">
			</leg>
			<act type="home" x="344126.28057022684" y="5821348.58021455" />
		</plan>

	</person>

<!-- ====================================================================== -->

	<person id="1000" employed="no">
		<plan selected="yes">
			<act type="home" x="341083.95455301565" y="5820565.2303216085" end_time="06:00:00" />
			<leg mode="car">
			</leg>
			<act type="home" x="341083.95455301565" y="5820565.2303216085" />
		</plan>

	</person>

<!-- ====================================================================== -->

	<person id="1001" employed="no">
		<plan selected="yes">
			<act type="home" x="341408.95547713764" y="5821035.228239471" end_time="06:00:00" />
			<leg mode="car">
			</leg>
			<act type="home" x="341408.95547713764" y="5821035.228239471" />
		</plan>

	</person>

<!-- ====================================================================== -->

	<person id="1002" employed="no">
		<plan selected="yes">
			<act type="home" x="341294.9548897723" y="5820648.228314483" end_time="06:00:00" />
			<leg mode="car">
			</leg>
			<act type="home" x="341294.9548897723" y="5820648.228314483" />
		</plan>

	</person>

<!-- ====================================================================== -->

	<person id="1003" employed="no">
		<plan selected="yes">
			<act type="home" x="343057.95337237185" y="5821722.214347204" end_time="06:00:00" />
			<leg mode="car">
			</leg>
			<act type="home" x="343057.95337237185" y="5821722.214347204" />
		</plan>

	</person>

<!-- ====================================================================== -->

	<person id="1004" employed="no">
		<plan selected="yes">
			<act type="home" x="343605.95228181116" y="5821297.215513784" end_time="06:00:00" />
			<leg mode="car">
			</leg>
			<act type="home" x="343605.95228181116" y="5821297.215513784" />
		</plan>

	</person>

<!-- ====================================================================== -->

	<person id="1005" employed="no">
		<plan selected="yes">
			<act type="home" x="342400.95331792126" y="5820783.217487341" end_time="06:00:00" />
			<leg mode="car">
			</leg>
			<act type="home" x="342400.95331792126" y="5820783.217487341" />
		</plan>

	</person>

<!-- ====================================================================== -->

	<person id="1006" employed="no">
		<plan selected="yes">
			<act type="home" x="341276.9496176187" y="5818761.226531832" end_time="06:00:00" />
			<leg mode="car">
			</leg>
			<act type="home" x="341276.9496176187" y="5818761.226531832" />
		</plan>

	</person>

<!-- ====================================================================== -->

	<person id="1007" employed="no">
		<plan selected="yes">
			<act type="home" x="341277.954828904" y="5820613.228294659" end_time="06:00:00" />
			<leg mode="car">
			</leg>
			<act type="home" x="341277.954828904" y="5820613.228294659" />
		</plan>

	</person>

<!-- ====================================================================== -->

	<person id="1008" employed="no">
		<plan selected="yes">
			<act type="home" x="341862.9545534915" y="5821003.221848567" end_time="06:00:00" />
			<leg mode="car">
			</leg>
			<act type="home" x="341862.9545534915" y="5821003.221848567" />
		</plan>

	</person>

<!-- ====================================================================== -->

	<person id="1009" employed="no">
		<plan selected="yes">
			<act type="home" x="341160.9505073928" y="5818933.2272330765" end_time="06:00:00" />
			<leg mode="car">
			</leg>
			<act type="home" x="341160.9505073928" y="5818933.2272330765" />
		</plan>

	</person>

<!-- ====================================================================== -->

	<person id="101" employed="no">
		<plan selected="yes">
			<act type="home" x="342599.9530870463" y="5821109.216712204" end_time="06:00:00" />
			<leg mode="car">
			</leg>
			<act type="home" x="342599.9530870463" y="5821109.216712204" />
		</plan>

	</person>

<!-- ====================================================================== -->

	<person id="1010" employed="no">
		<plan selected="yes">
			<act type="home" x="344011.47798823577" y="5822258.969710814" end_time="06:00:00" />
			<leg mode="car">
			</leg>
			<act type="home" x="344011.47798823577" y="5822258.969710814" />
		</plan>

	</person>

<!-- ====================================================================== -->

	<person id="1011" employed="no">
		<plan selected="yes">
			<act type="home" x="341556.9551272131" y="5821329.226842277" end_time="06:00:00" />
			<leg mode="car">
			</leg>
			<act type="home" x="341556.9551272131" y="5821329.226842277" />
		</plan>

	</person>

<!-- ====================================================================== -->

	<person id="1012" employed="no">
		<plan selected="yes">
			<act type="home" x="343124.94947707513" y="5819382.20901803" end_time="06:00:00" />
			<leg mode="car">
			</leg>
			<act type="home" x="343124.94947707513" y="5819382.20901803" />
		</plan>

	</person>

<!-- ====================================================================== -->

	<person id="1013" employed="no">
		<plan selected="yes">
			<act type="home" x="340610.9157092363" y="5819564.636526428" end_time="06:00:00" />
			<leg mode="car">
			</leg>
			<act type="home" x="340610.9157092363" y="5819564.636526428" />
		</plan>

	</person>

<!-- ====================================================================== -->

	<person id="1014" employed="no">
		<plan selected="yes">
			<act type="home" x="342432.95181140257" y="5819967.214980222" end_time="06:00:00" />
			<leg mode="car">
			</leg>
			<act type="home" x="342432.95181140257" y="5819967.214980222" />
		</plan>

	</person>

<!-- ====================================================================== -->

	<person id="1015" employed="no">
		<plan selected="yes">
			<act type="home" x="341862.95297851315" y="5820285.220305126" end_time="06:00:00" />
			<leg mode="car">
			</leg>
			<act type="home" x="341862.95297851315" y="5820285.220305126" />
		</plan>

	</person>

<!-- ====================================================================== -->

	<person id="1016" employed="no">
		<plan selected="yes">
			<act type="home" x="342368.9519784053" y="5820177.215046624" end_time="06:00:00" />
			<leg mode="car">
			</leg>
			<act type="home" x="342368.9519784053" y="5820177.215046624" />
		</plan>

	</person>

<!-- ====================================================================== -->

	<person id="1017" employed="no">
		<plan selected="yes">
			<act type="home" x="340932.95412566746" y="5820273.232474549" end_time="06:00:00" />
			<leg mode="car">
			</leg>
			<act type="home" x="340932.95412566746" y="5820273.232474549" />
		</plan>

	</person>

<!-- ====================================================================== -->

	<person id="1018" employed="no">
		<plan selected="yes">
			<act type="home" x="342557.46744427126" y="5821443.575070917" end_time="06:00:00" />
			<leg mode="car">
			</leg>
			<act type="home" x="342557.46744427126" y="5821443.575070917" />
		</plan>

	</person>

<!-- ====================================================================== -->

	<person id="1019" employed="no">
		<plan selected="yes">
			<act type="home" x="341439.95565613767" y="5821221.228068216" end_time="06:00:00" />
			<leg mode="car">
			</leg>
			<act type="home" x="341439.95565613767" y="5821221.228068216" />
		</plan>

	</person>

<!-- ====================================================================== -->

	<person id="102" employed="no">
		<plan selected="yes">
			<act type="home" x="343075.9532736108" y="5821740.214947504" end_time="06:00:00" />
			<leg mode="car">
			</leg>
			<act type="home" x="343075.9532736108" y="5821740.214947504" />
		</plan>

	</person>

<!-- ====================================================================== -->

	<person id="1020" employed="no">
		<plan selected="yes">
			<act type="home" x="343608.95337105216" y="5821608.217263376" end_time="06:00:00" />
			<leg mode="car">
			</leg>
			<act type="home" x="343608.95337105216" y="5821608.217263376" />
		</plan>

	</person>

<!-- ====================================================================== -->

	<person id="1021" employed="no">
		<plan selected="yes">
			<act type="home" x="343332.9532310489" y="5821784.214122229" end_time="06:00:00" />
			<leg mode="car">
			</leg>
			<act type="home" x="343332.9532310489" y="5821784.214122229" />
		</plan>

	</person>

<!-- ====================================================================== -->

	<person id="1022" employed="no">
		<plan selected="yes">
			<act type="home" x="342891.95323806955" y="5821571.215304015" end_time="06:00:00" />
			<leg mode="car">
			</leg>
			<act type="home" x="342891.95323806955" y="5821571.215304015" />
		</plan>

	</person>

<!-- ====================================================================== -->

	<person id="1023" employed="no">
		<plan selected="yes">
			<act type="home" x="340337.9524399921" y="5820068.234686289" end_time="06:00:00" />
			<leg mode="car">
			</leg>
			<act type="home" x="340337.9524399921" y="5820068.234686289" />
		</plan>

	</person>

<!-- ====================================================================== -->

	<person id="1024" employed="no">
		<plan selected="yes">
			<act type="home" x="343756.76961012674" y="5821699.332664134" end_time="06:00:00" />
			<leg mode="car">
			</leg>
			<act type="home" x="343756.76961012674" y="5821699.332664134" />
		</plan>

	</person>

<!-- ====================================================================== -->

	<person id="1025" employed="no">
		<plan selected="yes">
			<act type="home" x="340395.9526241225" y="5819831.233261971" end_time="06:00:00" />
			<leg mode="car">
			</leg>
			<act type="home" x="340395.9526241225" y="5819831.233261971" />
		</plan>

	</person>

<!-- ====================================================================== -->

	<person id="1026" employed="no">
		<plan selected="yes">
			<act type="home" x="343990.95286167733" y="5821335.220251752" end_time="06:00:00" />
			<leg mode="car">
			</leg>
			<act type="home" x="343990.95286167733" y="5821335.220251752" />
		</plan>

	</person>

<!-- ====================================================================== -->

	<person id="1027" employed="no">
		<plan selected="yes">
			<act type="home" x="343734.952867674" y="5821443.217431392" end_time="06:00:00" />
			<leg mode="car">
			</leg>
			<act type="home" x="343734.952867674" y="5821443.217431392" />
		</plan>

	</person>

<!-- ====================================================================== -->

	<person id="1028" employed="no">
		<plan selected="yes">
			<act type="home" x="343104.9531795833" y="5821515.214089153" end_time="06:00:00" />
			<leg mode="car">
			</leg>
			<act type="home" x="343104.9531795833" y="5821515.214089153" />
		</plan>

	</person>

<!-- ====================================================================== -->

	<person id="1029" employed="no">
		<plan selected="yes">
			<act type="home" x="340634.956635635" y="5821158.2373519335" end_time="06:00:00" />
			<leg mode="car">
			</leg>
			<act type="home" x="340634.956635635" y="5821158.2373519335" />
		</plan>

	</person>

<!-- ====================================================================== -->

	<person id="103" employed="no">
		<plan selected="yes">
			<act type="home" x="343465.9533310041" y="5821691.215076946" end_time="06:00:00" />
			<leg mode="car">
			</leg>
			<act type="home" x="343465.9533310041" y="5821691.215076946" />
		</plan>

	</person>

<!-- ====================================================================== -->

	<person id="1030" employed="no">
		<plan selected="yes">
			<act type="home" x="339875.9538162047" y="5820701.235770686" end_time="06:00:00" />
			<leg mode="car">
			</leg>
			<act type="home" x="339875.9538162047" y="5820701.235770686" />
		</plan>

	</person>

<!-- ====================================================================== -->

	<person id="1031" employed="no">
		<plan selected="yes">
			<act type="home" x="342216.9531187709" y="5820399.217077865" end_time="06:00:00" />
			<leg mode="car">
			</leg>
			<act type="home" x="342216.9531187709" y="5820399.217077865" />
		</plan>

	</person>

<!-- ====================================================================== -->

	<person id="1032" employed="no">
		<plan selected="yes">
			<act type="home" x="342053.953342278" y="5820605.219179001" end_time="06:00:00" />
			<leg mode="car">
			</leg>
			<act type="home" x="342053.953342278" y="5820605.219179001" />
		</plan>

	</person>

<!-- ====================================================================== -->

	<person id="1033" employed="no">
		<plan selected="yes">
			<act type="home" x="339545.58379688434" y="5820865.32846979" end_time="06:00:00" />
			<leg mode="car">
			</leg>
			<act type="home" x="339545.58379688434" y="5820865.32846979" />
		</plan>

	</person>

<!-- ====================================================================== -->

	<person id="1034" employed="no">
		<plan selected="yes">
			<act type="home" x="343610.9533175096" y="5821806.219099456" end_time="06:00:00" />
			<leg mode="car">
			</leg>
			<act type="home" x="343610.9533175096" y="5821806.219099456" />
		</plan>

	</person>

<!-- ====================================================================== -->

	<person id="1035" employed="no">
		<plan selected="yes">
			<act type="home" x="342111.4842868908" y="5820621.079067942" end_time="06:00:00" />
			<leg mode="car">
			</leg>
			<act type="home" x="342111.4842868908" y="5820621.079067942" />
		</plan>

	</person>

<!-- ====================================================================== -->

	<person id="1036" employed="no">
		<plan selected="yes">
			<act type="home" x="341770.95445464517" y="5820728.221907647" end_time="06:00:00" />
			<leg mode="car">
			</leg>
			<act type="home" x="341770.95445464517" y="5820728.221907647" />
		</plan>

	</person>

<!-- ====================================================================== -->

	<person id="1037" employed="no">
		<plan selected="yes">
			<act type="home" x="343094.7012239881" y="5821760.6473375205" end_time="06:00:00" />
			<leg mode="car">
			</leg>
			<act type="home" x="343094.7012239881" y="5821760.6473375205" />
		</plan>

	</person>

<!-- ====================================================================== -->

	<person id="1038" employed="no">
		<plan selected="yes">
			<act type="home" x="341771.9551498862" y="5821056.222991044" end_time="06:00:00" />
			<leg mode="car">
			</leg>
			<act type="home" x="341771.9551498862" y="5821056.222991044" />
		</plan>

	</person>

<!-- ====================================================================== -->

	<person id="1039" employed="no">
		<plan selected="yes">
			<act type="home" x="340471.6354879113" y="5819210.541951276" end_time="06:00:00" />
			<leg mode="car">
			</leg>
			<act type="home" x="340471.6354879113" y="5819210.541951276" />
		</plan>

	</person>

<!-- ====================================================================== -->

	<person id="104" employed="no">
		<plan selected="yes">
			<act type="home" x="342289.27216294897" y="5821174.913982797" end_time="06:00:00" />
			<leg mode="car">
			</leg>
			<act type="home" x="342289.27216294897" y="5821174.913982797" />
		</plan>

	</person>

<!-- ====================================================================== -->

	<person id="1040" employed="no">
		<plan selected="yes">
			<act type="home" x="340938.9530593006" y="5819780.231082972" end_time="06:00:00" />
			<leg mode="car">
			</leg>
			<act type="home" x="340938.9530593006" y="5819780.231082972" />
		</plan>

	</person>

<!-- ====================================================================== -->

	<person id="1041" employed="no">
		<plan selected="yes">
			<act type="home" x="341983.95307687833" y="5820527.219657821" end_time="06:00:00" />
			<leg mode="car">
			</leg>
			<act type="home" x="341983.95307687833" y="5820527.219657821" />
		</plan>

	</person>

<!-- ====================================================================== -->

	<person id="1042" employed="no">
		<plan selected="yes">
			<act type="home" x="341962.6479998429" y="5820705.821671994" end_time="06:00:00" />
			<leg mode="car">
			</leg>
			<act type="home" x="341962.6479998429" y="5820705.821671994" />
		</plan>

	</person>

<!-- ====================================================================== -->

	<person id="1043" employed="no">
		<plan selected="yes">
			<act type="home" x="341304.94969188725" y="5818679.226623228" end_time="06:00:00" />
			<leg mode="car">
			</leg>
			<act type="home" x="341304.94969188725" y="5818679.226623228" />
		</plan>

	</person>

<!-- ====================================================================== -->

	<person id="1044" employed="no">
		<plan selected="yes">
			<act type="home" x="342002.9518022944" y="5819775.218410388" end_time="06:00:00" />
			<leg mode="car">
			</leg>
			<act type="home" x="342002.9518022944" y="5819775.218410388" />
		</plan>

	</person>

<!-- ====================================================================== -->

	<person id="1045" employed="no">
		<plan selected="yes">
			<act type="home" x="343519.34276317636" y="5821883.047331474" end_time="06:00:00" />
			<leg mode="car">
			</leg>
			<act type="home" x="343519.34276317636" y="5821883.047331474" />
		</plan>

	</person>

<!-- ====================================================================== -->

	<person id="1046" employed="no">
		<plan selected="yes">
			<act type="home" x="344466.9519665071" y="5820954.221597776" end_time="06:00:00" />
			<leg mode="car">
			</leg>
			<act type="home" x="344466.9519665071" y="5820954.221597776" />
		</plan>

	</person>

<!-- ====================================================================== -->

	<person id="1047" employed="no">
		<plan selected="yes">
			<act type="home" x="342412.9537227184" y="5821170.218267326" end_time="06:00:00" />
			<leg mode="car">
			</leg>
			<act type="home" x="342412.9537227184" y="5821170.218267326" />
		</plan>

	</person>

<!-- ====================================================================== -->

	<person id="1048" employed="no">
		<plan selected="yes">
			<act type="home" x="342417.9522723275" y="5820124.215297574" end_time="06:00:00" />
			<leg mode="car">
			</leg>
			<act type="home" x="342417.9522723275" y="5820124.215297574" />
		</plan>

	</person>

<!-- ====================================================================== -->

	<person id="1049" employed="no">
		<plan selected="yes">
			<act type="home" x="341894.9543288073" y="5821052.2213252615" end_time="06:00:00" />
			<leg mode="car">
			</leg>
			<act type="home" x="341894.9543288073" y="5821052.2213252615" />
		</plan>

	</person>

<!-- ====================================================================== -->

	<person id="105" employed="no">
		<plan selected="yes">
			<act type="home" x="340904.9529637904" y="5819784.231296167" end_time="06:00:00" />
			<leg mode="car">
			</leg>
			<act type="home" x="340904.9529637904" y="5819784.231296167" />
		</plan>

	</person>

<!-- ====================================================================== -->

	<person id="1050" employed="no">
		<plan selected="yes">
			<act type="home" x="339714.9531429291" y="5820788.2358853" end_time="06:00:00" />
			<leg mode="car">
			</leg>
			<act type="home" x="339714.9531429291" y="5820788.2358853" />
		</plan>

	</person>

<!-- ====================================================================== -->

	<person id="1051" employed="no">
		<plan selected="yes">
			<act type="home" x="341049.7984919898" y="5820041.311272215" end_time="06:00:00" />
			<leg mode="car">
			</leg>
			<act type="home" x="341049.7984919898" y="5820041.311272215" />
		</plan>

	</person>

<!-- ====================================================================== -->

	<person id="1052" employed="no">
		<plan selected="yes">
			<act type="home" x="341552.9557581764" y="5821389.226488188" end_time="06:00:00" />
			<leg mode="car">
			</leg>
			<act type="home" x="341552.9557581764" y="5821389.226488188" />
		</plan>

	</person>

<!-- ====================================================================== -->

	<person id="1053" employed="no">
		<plan selected="yes">
			<act type="home" x="340007.95484988403" y="5820978.237585021" end_time="06:00:00" />
			<leg mode="car">
			</leg>
			<act type="home" x="340007.95484988403" y="5820978.237585021" />
		</plan>

	</person>

<!-- ====================================================================== -->

	<person id="1054" employed="no">
		<plan selected="yes">
			<act type="home" x="342068.9524820326" y="5820140.216869429" end_time="06:00:00" />
			<leg mode="car">
			</leg>
			<act type="home" x="342068.9524820326" y="5820140.216869429" />
		</plan>

	</person>

<!-- ====================================================================== -->

	<person id="1055" employed="no">
		<plan selected="yes">
			<act type="home" x="342482.1495088026" y="5820947.418786228" end_time="06:00:00" />
			<leg mode="car">
			</leg>
			<act type="home" x="342482.1495088026" y="5820947.418786228" />
		</plan>

	</person>

<!-- ====================================================================== -->

	<person id="1056" employed="no">
		<plan selected="yes">
			<act type="home" x="340211.7665342304" y="5820201.0464131115" end_time="06:00:00" />
			<leg mode="car">
			</leg>
			<act type="home" x="340211.7665342304" y="5820201.0464131115" />
		</plan>

	</person>

<!-- ====================================================================== -->

	<person id="1057" employed="no">
		<plan selected="yes">
			<act type="home" x="343310.4731202021" y="5821433.101177715" end_time="06:00:00" />
			<leg mode="car">
			</leg>
			<act type="home" x="343310.4731202021" y="5821433.101177715" />
		</plan>

	</person>

<!-- ====================================================================== -->

	<person id="1058" employed="no">
		<plan selected="yes">
			<act type="home" x="341302.9552475149" y="5821180.22969478" end_time="06:00:00" />
			<leg mode="car">
			</leg>
			<act type="home" x="341302.9552475149" y="5821180.22969478" />
		</plan>

	</person>

<!-- ====================================================================== -->

	<person id="1059" employed="no">
		<plan selected="yes">
			<act type="home" x="341795.9540997173" y="5820923.222654358" end_time="06:00:00" />
			<leg mode="car">
			</leg>
			<act type="home" x="341795.9540997173" y="5820923.222654358" />
		</plan>

	</person>

<!-- ====================================================================== -->

	<person id="106" employed="no">
		<plan selected="yes">
			<act type="home" x="341969.95398022444" y="5820620.21947555" end_time="06:00:00" />
			<leg mode="car">
			</leg>
			<act type="home" x="341969.95398022444" y="5820620.21947555" />
		</plan>

	</person>

<!-- ====================================================================== -->

	<person id="1060" employed="no">
		<plan selected="yes">
			<act type="home" x="341106.2453307166" y="5820073.942269447" end_time="06:00:00" />
			<leg mode="car">
			</leg>
			<act type="home" x="341106.2453307166" y="5820073.942269447" />
		</plan>

	</person>

<!-- ====================================================================== -->

	<person id="1061" employed="no">
		<plan selected="yes">
			<act type="home" x="343038.9496480494" y="5819397.21026542" end_time="06:00:00" />
			<leg mode="car">
			</leg>
			<act type="home" x="343038.9496480494" y="5819397.21026542" />
		</plan>

	</person>

<!-- ====================================================================== -->

	<person id="1062" employed="no">
		<plan selected="yes">
			<act type="home" x="344028.9527574515" y="5821467.221502787" end_time="06:00:00" />
			<leg mode="car">
			</leg>
			<act type="home" x="344028.9527574515" y="5821467.221502787" />
		</plan>

	</person>

<!-- ====================================================================== -->

	<person id="1063" employed="no">
		<plan selected="yes">
			<act type="home" x="345276.8524854516" y="5820784.8944992535" end_time="06:00:00" />
			<leg mode="car">
			</leg>
			<act type="home" x="345276.8524854516" y="5820784.8944992535" />
		</plan>

	</person>

<!-- ====================================================================== -->

	<person id="1064" employed="no">
		<plan selected="yes">
			<act type="home" x="342591.95423767116" y="5821416.216825535" end_time="06:00:00" />
			<leg mode="car">
			</leg>
			<act type="home" x="342591.95423767116" y="5821416.216825535" />
		</plan>

	</person>

<!-- ====================================================================== -->

	<person id="1065" employed="no">
		<plan selected="yes">
			<act type="home" x="343705.7096101106" y="5819673.260120529" end_time="06:00:00" />
			<leg mode="car">
			</leg>
			<act type="home" x="343705.7096101106" y="5819673.260120529" />
		</plan>

	</person>

<!-- ====================================================================== -->

	<person id="1066" employed="no">
		<plan selected="yes">
			<act type="home" x="340063.636923334" y="5818668.55754588" end_time="06:00:00" />
			<leg mode="car">
			</leg>
			<act type="home" x="340063.636923334" y="5818668.55754588" />
		</plan>

	</person>

<!-- ====================================================================== -->

	<person id="1067" employed="no">
		<plan selected="yes">
			<act type="home" x="341510.95505912625" y="5820998.226978954" end_time="06:00:00" />
			<leg mode="car">
			</leg>
			<act type="home" x="341510.95505912625" y="5820998.226978954" />
		</plan>

	</person>

<!-- ====================================================================== -->

	<person id="1068" employed="no">
		<plan selected="yes">
			<act type="home" x="342082.9529895375" y="5820176.2177590635" end_time="06:00:00" />
			<leg mode="car">
			</leg>
			<act type="home" x="342082.9529895375" y="5820176.2177590635" />
		</plan>

	</person>

<!-- ====================================================================== -->

	<person id="1069" employed="no">
		<plan selected="yes">
			<act type="home" x="342507.95225748426" y="5820580.21611863" end_time="06:00:00" />
			<leg mode="car">
			</leg>
			<act type="home" x="342507.95225748426" y="5820580.21611863" />
		</plan>

	</person>

<!-- ====================================================================== -->

	<person id="107" employed="no">
		<plan selected="yes">
			<act type="home" x="341700.8367616743" y="5822190.77519482" end_time="06:00:00" />
			<leg mode="car">
			</leg>
			<act type="home" x="341700.8367616743" y="5822190.77519482" />
		</plan>

	</person>

<!-- ====================================================================== -->

	<person id="1070" employed="no">
		<plan selected="yes">
			<act type="home" x="342515.96140504297" y="5820643.789842578" end_time="06:00:00" />
			<leg mode="car">
			</leg>
			<act type="home" x="342515.96140504297" y="5820643.789842578" />
		</plan>

	</person>

<!-- ====================================================================== -->

	<person id="1071" employed="no">
		<plan selected="yes">
			<act type="home" x="340107.0954100278" y="5820153.870272854" end_time="06:00:00" />
			<leg mode="car">
			</leg>
			<act type="home" x="340107.0954100278" y="5820153.870272854" />
		</plan>

	</person>

<!-- ====================================================================== -->

	<person id="1072" employed="no">
		<plan selected="yes">
			<act type="home" x="341332.95429872524" y="5820605.227174728" end_time="06:00:00" />
			<leg mode="car">
			</leg>
			<act type="home" x="341332.95429872524" y="5820605.227174728" />
		</plan>

	</person>

<!-- ====================================================================== -->

	<person id="1073" employed="no">
		<plan selected="yes">
			<act type="home" x="340581.9509871205" y="5819099.229839763" end_time="06:00:00" />
			<leg mode="car">
			</leg>
			<act type="home" x="340581.9509871205" y="5819099.229839763" />
		</plan>

	</person>

<!-- ====================================================================== -->

	<person id="1074" employed="no">
		<plan selected="yes">
			<act type="home" x="343965.9986263831" y="5821573.419835601" end_time="06:00:00" />
			<leg mode="car">
			</leg>
			<act type="home" x="343965.9986263831" y="5821573.419835601" />
		</plan>

	</person>

<!-- ====================================================================== -->

	<person id="1075" employed="no">
		<plan selected="yes">
			<act type="home" x="339642.88381288707" y="5820504.7677683905" end_time="06:00:00" />
			<leg mode="car">
			</leg>
			<act type="home" x="339642.88381288707" y="5820504.7677683905" />
		</plan>

	</person>
