<?xml version="1.0" encoding="utf-8"?>
  <!DOCTYPE population SYSTEM "http://www.matsim.org/files/dtd/population_v6.dtd">
  <population>
  <!-- ====================================================================== -->

 <person  id= "0" >
    <attributes>
      <attribute name="BDIAgentType" class="java.lang.String" >io.github.agentsoz.ees.agents.bushfire.Resident</attribute>
      <attribute name="HasDependentsAtLocation" class="java.lang.String" ></attribute>
      <attribute name="InitialResponseThreshold" class="java.lang.Double" >0.2</attribute>
      <attribute name="FinalResponseThreshold"   class="java.lang.Double" >0.5</attribute>
      <attribute name="WillGoHomeAfterVisitingDependents" class="java.lang.Boolean" >false</attribute>
      <attribute name="WillGoHomeBeforeLeaving" class="java.lang.Boolean" >false</attribute>
      <attribute name="EvacLocationPreference" class="java.lang.String">,790515.310544487,5753801.66301497</attribute>
      <attribute name="InvacLocationPreference" class="java.lang.String">Anglesea 11,776775.148450238,5742599.92326103</attribute>
    </attributes>
    <plan selected="yes">
      <activity type="home" x="776804.490099946" y="5742549.39945688" end_time="04:20:00" />
      <leg mode="car" />
      <activity type="other" x="789861.480645674" y="5753138.57302227" end_time="06:14:00" />
      <leg mode="car" />
      <activity type="home" x="776804.490099946" y="5742549.39945688" end_time="10:03:00" />
      <leg mode="car" />
      <activity type="work" x="770414.805305086" y="5738048.92184389" end_time="15:23:00" />
      <leg mode="car" />
      <activity type="beach" x="778247.725118489" y="5743352.11543371" end_time="17:20:00" />
      <leg mode="car" />
      <activity type="other" x="759157.839965405" y="5730302.57810009" end_time="19:05:00" />
      <leg mode="car" />
      <activity type="home" x="776804.490099946" y="5742549.39945688" />
    </plan>
  </person>

  

 <person  id= "1" >
    <attributes>
      <attribute name="BDIAgentType" class="java.lang.String" >io.github.agentsoz.ees.agents.bushfire.Resident</attribute>
      <attribute name="HasDependentsAtLocation" class="java.lang.String" ></attribute>
      <attribute name="InitialResponseThreshold" class="java.lang.Double" >0.8</attribute>
      <attribute name="FinalResponseThreshold"   class="java.lang.Double" >0.9</attribute>
      <attribute name="WillGoHomeAfterVisitingDependents" class="java.lang.Boolean" >false</attribute>
      <attribute name="WillGoHomeBeforeLeaving" class="java.lang.Boolean" >false</attribute>
      <attribute name="EvacLocationPreference" class="java.lang.String">,743345.54165134,5752749.80696866</attribute>
      <attribute name="InvacLocationPreference" class="java.lang.String">,782849.16035886,5750765.97172697</attribute>
    </attributes>
    <plan selected="yes">
      <activity type="home" x="790883.44088446" y="5754434.92068537" end_time="04:41:00" />
      <leg mode="car" />
      <activity type="other" x="789861.480645674" y="5753138.57302227" end_time="06:24:00" />
      <leg mode="car" />
      <activity type="home" x="790883.44088446" y="5754434.92068537" end_time="12:37:00" />
      <leg mode="car" />
      <activity type="work" x="789905.524080843" y="5752584.73973692" end_time="17:02:00" />
      <leg mode="car" />
      <activity type="shops" x="790529.886535559" y="5752219.33123197" end_time="19:00:00" />
      <leg mode="car" />
      <activity type="home" x="790883.44088446" y="5754434.92068537" />
    </plan>
  </person>

  

 <person  id= "2" >
    <attributes>
      <attribute name="BDIAgentType" class="java.lang.String" >io.github.agentsoz.ees.agents.bushfire.Resident</attribute>
      <attribute name="HasDependentsAtLocation" class="java.lang.String" >791015.308768398,5752966.71949309</attribute>
      <attribute name="InitialResponseThreshold" class="java.lang.Double" >0.1</attribute>
      <attribute name="FinalResponseThreshold"   class="java.lang.Double" >0.5</attribute>
      <attribute name="WillGoHomeAfterVisitingDependents" class="java.lang.Boolean" >false</attribute>
      <attribute name="WillGoHomeBeforeLeaving" class="java.lang.Boolean" >false</attribute>
      <attribute name="EvacLocationPreference" class="java.lang.String">,725946.634709856,5753152.68589706</attribute>
      <attribute name="InvacLocationPreference" class="java.lang.String">,790420.895905102,5752508.39440602</attribute>
    </attributes>
    <plan selected="yes">
      <activity type="home" x="791029.947190837" y="5752961.49543452" end_time="00:01:00" />
      <leg mode="car" />
      <activity type="work" x="789812.43243374" y="5752636.78267512" end_time="04:44:00" />
      <leg mode="car" />
      <activity type="home" x="791029.947190837" y="5752961.49543452" end_time="11:57:00" />
      <leg mode="car" />
      <activity type="shops" x="759292.957293393" y="5730046.69255781" end_time="12:41:00" />
      <leg mode="car" />
      <activity type="work" x="759304.083764353" y="5730247.25466383" end_time="17:22:00" />
      <leg mode="car" />
      <activity type="home" x="791029.947190837" y="5752961.49543452" />
    </plan>
  </person>

  

 <person  id= "3" >
    <attributes>
      <attribute name="BDIAgentType" class="java.lang.String" >io.github.agentsoz.ees.agents.bushfire.Resident</attribute>
      <attribute name="HasDependentsAtLocation" class="java.lang.String" ></attribute>
      <attribute name="InitialResponseThreshold" class="java.lang.Double" >0.8</attribute>
      <attribute name="FinalResponseThreshold"   class="java.lang.Double" >0.9</attribute>
      <attribute name="WillGoHomeAfterVisitingDependents" class="java.lang.Boolean" >false</attribute>
      <attribute name="WillGoHomeBeforeLeaving" class="java.lang.Boolean" >false</attribute>
      <attribute name="EvacLocationPreference" class="java.lang.String">Whites Beach,790561.111406455,5751377.09281903</attribute>
      <attribute name="InvacLocationPreference" class="java.lang.String">Lorne 36,758984.50843874,5729689.29220781</attribute>
    </attributes>
    <plan selected="yes">
      <activity type="home" x="759425.361739491" y="5729387.48050471" end_time="09:31:00" />
      <leg mode="car" />
      <activity type="work" x="759304.673292036" y="5730225.27642767" end_time="12:42:00" />
      <leg mode="car" />
      <activity type="home" x="759425.361739491" y="5729387.48050471" end_time="14:15:00" />
      <leg mode="car" />
      <activity type="beach" x="778247.725118489" y="5743352.11543371" end_time="17:01:00" />
      <leg mode="car" />
      <activity type="home" x="759425.361739491" y="5729387.48050471" end_time="20:23:00" />
      <leg mode="car" />
      <activity type="other" x="778707.911695857" y="5745384.49367177" end_time="22:10:00" />
      <leg mode="car" />
      <activity type="home" x="759425.361739491" y="5729387.48050471" />
    </plan>
  </person>

  

 <person  id= "4" >
    <attributes>
      <attribute name="BDIAgentType" class="java.lang.String" >io.github.agentsoz.ees.agents.bushfire.Resident</attribute>
      <attribute name="HasDependentsAtLocation" class="java.lang.String" >776406.333769396,5744062.91469885</attribute>
      <attribute name="InitialResponseThreshold" class="java.lang.Double" >0.1</attribute>
      <attribute name="FinalResponseThreshold"   class="java.lang.Double" >0.3</attribute>
      <attribute name="WillGoHomeAfterVisitingDependents" class="java.lang.Boolean" >true</attribute>
      <attribute name="WillGoHomeBeforeLeaving" class="java.lang.Boolean" >false</attribute>
      <attribute name="EvacLocationPreference" class="java.lang.String">,743345.54165134,5752749.80696866</attribute>
      <attribute name="InvacLocationPreference" class="java.lang.String">Golf Club,776911.116261939,5744395.31379908</attribute>
    </attributes>
    <plan selected="yes">
      <activity type="home" x="776409.959304765" y="5744052.61043153" end_time="09:15:00" />
      <leg mode="car" />
      <activity type="shops" x="778593.898904213" y="5744467.60593331" end_time="10:50:00" />
      <leg mode="car" />
      <activity type="home" x="776409.959304765" y="5744052.61043153" end_time="13:47:00" />
      <leg mode="car" />
      <activity type="beach" x="778614.794764519" y="5743470.87325903" end_time="14:38:00" />
      <leg mode="car" />
      <activity type="shops" x="778625.507483276" y="5744460.79582655" end_time="18:53:00" />
      <leg mode="car" />
      <activity type="home" x="776409.959304765" y="5744052.61043153" />
    </plan>
  </person>

  

 <person  id= "5" >
    <attributes>
      <attribute name="BDIAgentType" class="java.lang.String" >io.github.agentsoz.ees.agents.bushfire.Resident</attribute>
      <attribute name="HasDependentsAtLocation" class="java.lang.String" ></attribute>
      <attribute name="InitialResponseThreshold" class="java.lang.Double" >0.6</attribute>
      <attribute name="FinalResponseThreshold"   class="java.lang.Double" >0.8</attribute>
      <attribute name="WillGoHomeAfterVisitingDependents" class="java.lang.Boolean" >false</attribute>
      <attribute name="WillGoHomeBeforeLeaving" class="java.lang.Boolean" >false</attribute>
      <attribute name="EvacLocationPreference" class="java.lang.String">Lorne 21,759384.918109419,5730417.76020269</attribute>
      <attribute name="InvacLocationPreference" class="java.lang.String">,785786.915018625,5758107.14723832</attribute>
    </attributes>
    <plan selected="yes">
      <activity type="home" x="791043.318330491" y="5753023.83409171" end_time="08:40:00" />
      <leg mode="car" />
      <activity type="work" x="778934.104365405" y="5744561.56030487" end_time="16:45:00" />
      <leg mode="car" />
      <activity type="beach" x="778614.794764519" y="5743470.87325903" end_time="18:18:00" />
      <leg mode="car" />
      <activity type="home" x="791043.318330491" y="5753023.83409171" end_time="21:42:00" />
      <leg mode="car" />
      <activity type="work" x="778994.682746903" y="5744525.34326013" end_time="23:59:00" />
      <leg mode="car" />
      <activity type="home" x="791043.318330491" y="5753023.83409171" />
    </plan>
  </person>

  

 <person  id= "6" >
    <attributes>
      <attribute name="BDIAgentType" class="java.lang.String" >io.github.agentsoz.ees.agents.bushfire.Resident</attribute>
      <attribute name="HasDependentsAtLocation" class="java.lang.String" >790431.062424204,5752262.50548581</attribute>
      <attribute name="InitialResponseThreshold" class="java.lang.Double" >0.3</attribute>
      <attribute name="FinalResponseThreshold"   class="java.lang.Double" >0.9</attribute>
      <attribute name="WillGoHomeAfterVisitingDependents" class="java.lang.Boolean" >true</attribute>
      <attribute name="WillGoHomeBeforeLeaving" class="java.lang.Boolean" >false</attribute>
      <attribute name="EvacLocationPreference" class="java.lang.String">Surf Club,769139.399818792,5737680.05099942</attribute>
      <attribute name="InvacLocationPreference" class="java.lang.String">,790375.415976107,5752132.444752</attribute>
    </attributes>
    <plan selected="yes">
      <activity type="home" x="790447.616715825" y="5752242.95599423" end_time="07:33:00" />
      <leg mode="car" />
      <activity type="shops" x="790558.288517386" y="5751591.13086987" end_time="09:39:00" />
      <leg mode="car" />
      <activity type="work" x="779113.698750754" y="5744557.74372088" end_time="13:24:00" />
      <leg mode="car" />
      <activity type="beach" x="778247.725118489" y="5743352.11543371" end_time="14:15:00" />
      <leg mode="car" />
      <activity type="work" x="778935.759019689" y="5744540.95448125" end_time="19:16:00" />
      <leg mode="car" />
      <activity type="home" x="790447.616715825" y="5752242.95599423" />
    </plan>
  </person>

  

 <person  id= "7" >
    <attributes>
      <attribute name="BDIAgentType" class="java.lang.String" >io.github.agentsoz.ees.agents.bushfire.Resident</attribute>
      <attribute name="HasDependentsAtLocation" class="java.lang.String" ></attribute>
      <attribute name="InitialResponseThreshold" class="java.lang.Double" >0.8</attribute>
      <attribute name="FinalResponseThreshold"   class="java.lang.Double" >0.8</attribute>
      <attribute name="WillGoHomeAfterVisitingDependents" class="java.lang.Boolean" >false</attribute>
      <attribute name="WillGoHomeBeforeLeaving" class="java.lang.Boolean" >false</attribute>
      <attribute name="EvacLocationPreference" class="java.lang.String">,789692.496028965,5752041.73873462</attribute>
      <attribute name="InvacLocationPreference" class="java.lang.String">Anglesea Surf Club,778106.809561851,5743357.64021425</attribute>
    </attributes>
    <plan selected="yes">
      <activity type="home" x="777775.993319592" y="5743453.81762125" end_time="08:18:00" />
      <leg mode="car" />
      <activity type="beach" x="790560.824945767" y="5751343.63519774" end_time="11:31:00" />
      <leg mode="car" />
      <activity type="home" x="777775.993319592" y="5743453.81762125" end_time="13:40:00" />
      <leg mode="car" />
      <activity type="work" x="779113.698750754" y="5744557.74372088" end_time="16:22:00" />
      <leg mode="car" />
      <activity type="beach" x="790568.951774962" y="5751325.2355685" end_time="19:06:00" />
      <leg mode="car" />
      <activity type="shops" x="778190.084385339" y="5744106.22590521" end_time="21:45:00" />
      <leg mode="car" />
      <activity type="home" x="777775.993319592" y="5743453.81762125" />
    </plan>
  </person>

  

 <person  id= "8" >
    <attributes>
      <attribute name="BDIAgentType" class="java.lang.String" >io.github.agentsoz.ees.agents.bushfire.Resident</attribute>
      <attribute name="HasDependentsAtLocation" class="java.lang.String" ></attribute>
      <attribute name="InitialResponseThreshold" class="java.lang.Double" >0.8</attribute>
      <attribute name="FinalResponseThreshold"   class="java.lang.Double" >0.8</attribute>
      <attribute name="WillGoHomeAfterVisitingDependents" class="java.lang.Boolean" >false</attribute>
      <attribute name="WillGoHomeBeforeLeaving" class="java.lang.Boolean" >true</attribute>
      <attribute name="EvacLocationPreference" class="java.lang.String">,791118.102569293,5753461.09876635</attribute>
      <attribute name="InvacLocationPreference" class="java.lang.String">Aireys Inlet 7,771007.050893354,5738882.05444265</attribute>
    </attributes>
    <plan selected="yes">
      <activity type="home" x="770956.57260556" y="5738757.11992477" end_time="09:00:00" />
      <leg mode="car" />
      <activity type="work" x="779114.215872925" y="5744467.30459213" end_time="12:36:00" />
      <leg mode="car" />
      <activity type="other" x="789777.66185784" y="5753252.7750329" end_time="15:48:00" />
      <leg mode="car" />
      <activity type="beach" x="790568.951774962" y="5751325.2355685" end_time="17:53:00" />
      <leg mode="car" />
      <activity type="home" x="770956.57260556" y="5738757.11992477" />
    </plan>
  </person>

  

 <person  id= "9" >
    <attributes>
      <attribute name="BDIAgentType" class="java.lang.String" >io.github.agentsoz.ees.agents.bushfire.Resident</attribute>
      <attribute name="HasDependentsAtLocation" class="java.lang.String" >771973.457972826,5739235.53148572</attribute>
      <attribute name="InitialResponseThreshold" class="java.lang.Double" >0.3</attribute>
      <attribute name="FinalResponseThreshold"   class="java.lang.Double" >0.7</attribute>
      <attribute name="WillGoHomeAfterVisitingDependents" class="java.lang.Boolean" >false</attribute>
      <attribute name="WillGoHomeBeforeLeaving" class="java.lang.Boolean" >false</attribute>
      <attribute name="EvacLocationPreference" class="java.lang.String">,792241.980747176,5754059.19193522</attribute>
      <attribute name="InvacLocationPreference" class="java.lang.String">,758734.454403111,5771986.22983889</attribute>
    </attributes>
    <plan selected="yes">
      <activity type="home" x="771992.065758523" y="5739229.95184002" end_time="09:49:00" />
      <leg mode="car" />
      <activity type="work" x="770422.86671332" y="5738055.53444599" end_time="13:02:00" />
      <leg mode="car" />
      <activity type="home" x="771992.065758523" y="5739229.95184002" end_time="15:53:00" />
      <leg mode="car" />
      <activity type="other" x="771396.301080196" y="5738862.70157473" end_time="16:13:00" />
      <leg mode="car" />
      <activity type="home" x="771992.065758523" y="5739229.95184002" end_time="18:15:00" />
      <leg mode="car" />
      <activity type="shops" x="771123.261766525" y="5738707.26307964" end_time="21:07:00" />
      <leg mode="car" />
      <activity type="home" x="771992.065758523" y="5739229.95184002" />
    </plan>
  </person>

  

 <person  id= "10" >
    <attributes>
      <attribute name="BDIAgentType" class="java.lang.String" >io.github.agentsoz.ees.agents.bushfire.Resident</attribute>
      <attribute name="HasDependentsAtLocation" class="java.lang.String" ></attribute>
      <attribute name="InitialResponseThreshold" class="java.lang.Double" >0.2</attribute>
      <attribute name="FinalResponseThreshold"   class="java.lang.Double" >0.8</attribute>
      <attribute name="WillGoHomeAfterVisitingDependents" class="java.lang.Boolean" >false</attribute>
      <attribute name="WillGoHomeBeforeLeaving" class="java.lang.Boolean" >true</attribute>
      <attribute name="EvacLocationPreference" class="java.lang.String">,789692.496028965,5752041.73873462</attribute>
      <attribute name="InvacLocationPreference" class="java.lang.String">Aireys Inlet 12,771699.381654435,5739165.59987805</attribute>
    </attributes>
    <plan selected="yes">
      <activity type="home" x="771820.190533963" y="5739151.05296194" end_time="11:30:00" />
      <leg mode="car" />
      <activity type="work" x="770408.733218234" y="5738045.9648825" end_time="18:29:00" />
      <leg mode="car" />
      <activity type="home" x="771820.190533963" y="5739151.05296194" />
    </plan>
  </person>

  

 <person  id= "11" >
    <attributes>
      <attribute name="BDIAgentType" class="java.lang.String" >io.github.agentsoz.ees.agents.bushfire.Resident</attribute>
      <attribute name="HasDependentsAtLocation" class="java.lang.String" ></attribute>
      <attribute name="InitialResponseThreshold" class="java.lang.Double" >0.2</attribute>
      <attribute name="FinalResponseThreshold"   class="java.lang.Double" >0.5</attribute>
      <attribute name="WillGoHomeAfterVisitingDependents" class="java.lang.Boolean" >false</attribute>
      <attribute name="WillGoHomeBeforeLeaving" class="java.lang.Boolean" >true</attribute>
      <attribute name="EvacLocationPreference" class="java.lang.String">,743345.54165134,5752749.80696866</attribute>
      <attribute name="InvacLocationPreference" class="java.lang.String">Anglesea 3,778884.759875751,5744768.54920968</attribute>
    </attributes>
    <plan selected="yes">
      <activity type="home" x="778100.013462445" y="5744347.98468137" end_time="08:30:00" />
      <leg mode="car" />
      <activity type="work" x="778812.892695737" y="5745392.51241282" end_time="16:43:00" />
      <leg mode="car" />
      <activity type="beach" x="778614.794764519" y="5743470.87325903" end_time="19:08:00" />
      <leg mode="car" />
      <activity type="shops" x="790552.825212127" y="5751523.87989546" end_time="21:02:00" />
      <leg mode="car" />
      <activity type="home" x="778100.013462445" y="5744347.98468137" />
    </plan>
  </person>

  

 <person  id= "12" >
    <attributes>
      <attribute name="BDIAgentType" class="java.lang.String" >io.github.agentsoz.ees.agents.bushfire.Resident</attribute>
      <attribute name="HasDependentsAtLocation" class="java.lang.String" ></attribute>
      <attribute name="InitialResponseThreshold" class="java.lang.Double" >0.5</attribute>
      <attribute name="FinalResponseThreshold"   class="java.lang.Double" >0.6</attribute>
      <attribute name="WillGoHomeAfterVisitingDependents" class="java.lang.Boolean" >false</attribute>
      <attribute name="WillGoHomeBeforeLeaving" class="java.lang.Boolean" >false</attribute>
      <attribute name="EvacLocationPreference" class="java.lang.String">Aireys Beach,771581.803662605,5738595.98474283</attribute>
      <attribute name="InvacLocationPreference" class="java.lang.String">,793039.244589974,5754344.1667993</attribute>
    </attributes>
    <plan selected="yes">
      <activity type="home" x="793288.887744889" y="5754396.16948394" end_time="05:14:00" />
      <leg mode="car" />
      <activity type="work" x="789949.244287002" y="5754768.05688998" end_time="08:09:00" />
      <leg mode="car" />
      <activity type="home" x="793288.887744889" y="5754396.16948394" end_time="11:50:00" />
      <leg mode="car" />
      <activity type="shops" x="759288.258141766" y="5729909.14527695" end_time="13:34:00" />
      <leg mode="car" />
      <activity type="beach" x="778247.725118489" y="5743352.11543371" end_time="17:32:00" />
      <leg mode="car" />
      <activity type="shops" x="790596.248951594" y="5751858.71524053" end_time="18:33:00" />
      <leg mode="car" />
      <activity type="home" x="793288.887744889" y="5754396.16948394" />
    </plan>
  </person>

  

 <person  id= "13" >
    <attributes>
      <attribute name="BDIAgentType" class="java.lang.String" >io.github.agentsoz.ees.agents.bushfire.Resident</attribute>
      <attribute name="HasDependentsAtLocation" class="java.lang.String" ></attribute>
      <attribute name="InitialResponseThreshold" class="java.lang.Double" >0.1</attribute>
      <attribute name="FinalResponseThreshold"   class="java.lang.Double" >0.7</attribute>
      <attribute name="WillGoHomeAfterVisitingDependents" class="java.lang.Boolean" >false</attribute>
      <attribute name="WillGoHomeBeforeLeaving" class="java.lang.Boolean" >true</attribute>
      <attribute name="EvacLocationPreference" class="java.lang.String">,725946.634709856,5753152.68589706</attribute>
      <attribute name="InvacLocationPreference" class="java.lang.String">,787477.907567736,5749712.42887246</attribute>
    </attributes>
    <plan selected="yes">
      <activity type="home" x="787841.788473236" y="5749971.80904587" end_time="05:28:00" />
      <leg mode="car" />
      <activity type="other" x="771396.301080196" y="5738862.70157473" end_time="07:31:00" />
      <leg mode="car" />
      <activity type="home" x="787841.788473236" y="5749971.80904587" end_time="15:08:00" />
      <leg mode="car" />
      <activity type="beach" x="790775.326327373" y="5751338.57918683" end_time="16:02:00" />
      <leg mode="car" />
      <activity type="work" x="770427.693470059" y="5738062.11264301" end_time="23:59:00" />
      <leg mode="car" />
      <activity type="home" x="787841.788473236" y="5749971.80904587" />
    </plan>
  </person>

  

 <person  id= "14" >
    <attributes>
      <attribute name="BDIAgentType" class="java.lang.String" >io.github.agentsoz.ees.agents.bushfire.Resident</attribute>
      <attribute name="HasDependentsAtLocation" class="java.lang.String" ></attribute>
      <attribute name="InitialResponseThreshold" class="java.lang.Double" >0.6</attribute>
      <attribute name="FinalResponseThreshold"   class="java.lang.Double" >0.9</attribute>
      <attribute name="WillGoHomeAfterVisitingDependents" class="java.lang.Boolean" >false</attribute>
      <attribute name="WillGoHomeBeforeLeaving" class="java.lang.Boolean" >true</attribute>
      <attribute name="EvacLocationPreference" class="java.lang.String">Geelong,793176.81224368,5768999.20766906</attribute>
      <attribute name="InvacLocationPreference" class="java.lang.String">Lorne 32,758769.662198062,5729795.88152983</attribute>
    </attributes>
    <plan selected="yes">
      <activity type="home" x="758877.490020869" y="5729869.12337569" end_time="00:01:00" />
      <leg mode="car" />
      <activity type="work" x="759238.014256161" y="5730276.3829063" end_time="04:50:00" />
      <leg mode="car" />
      <activity type="home" x="758877.490020869" y="5729869.12337569" end_time="11:52:00" />
      <leg mode="car" />
      <activity type="shops" x="759293.636953272" y="5729990.44320517" end_time="13:15:00" />
      <leg mode="car" />
      <activity type="work" x="759288.943076066" y="5730261.77284466" end_time="21:55:00" />
      <leg mode="car" />
      <activity type="home" x="758877.490020869" y="5729869.12337569" />
    </plan>
  </person>

  

 <person  id= "15" >
    <attributes>
      <attribute name="BDIAgentType" class="java.lang.String" >io.github.agentsoz.ees.agents.bushfire.Resident</attribute>
      <attribute name="HasDependentsAtLocation" class="java.lang.String" >769558.61173943,5737985.29318841</attribute>
      <attribute name="InitialResponseThreshold" class="java.lang.Double" >0.1</attribute>
      <attribute name="FinalResponseThreshold"   class="java.lang.Double" >0.9</attribute>
      <attribute name="WillGoHomeAfterVisitingDependents" class="java.lang.Boolean" >false</attribute>
      <attribute name="WillGoHomeBeforeLeaving" class="java.lang.Boolean" >false</attribute>
      <attribute name="EvacLocationPreference" class="java.lang.String">,790894.719887596,5753891.31030722</attribute>
      <attribute name="InvacLocationPreference" class="java.lang.String">Fairhaven 3,769632.031771744,5738126.20831395</attribute>
    </attributes>
    <plan selected="yes">
      <activity type="home" x="769565.168216632" y="5737976.09163569" end_time="08:46:00" />
      <leg mode="car" />
      <activity type="work" x="759247.099570542" y="5730238.92838298" end_time="12:28:00" />
      <leg mode="car" />
      <activity type="shops" x="759292.097333829" y="5730011.64553765" end_time="14:35:00" />
      <leg mode="car" />
      <activity type="work" x="759298.019275781" y="5730296.78938106" end_time="18:56:00" />
      <leg mode="car" />
      <activity type="home" x="769565.168216632" y="5737976.09163569" />
    </plan>
  </person>

  

 <person  id= "16" >
    <attributes>
      <attribute name="BDIAgentType" class="java.lang.String" >io.github.agentsoz.ees.agents.bushfire.Resident</attribute>
      <attribute name="HasDependentsAtLocation" class="java.lang.String" ></attribute>
      <attribute name="InitialResponseThreshold" class="java.lang.Double" >0.5</attribute>
      <attribute name="FinalResponseThreshold"   class="java.lang.Double" >0.6</attribute>
      <attribute name="WillGoHomeAfterVisitingDependents" class="java.lang.Boolean" >false</attribute>
      <attribute name="WillGoHomeBeforeLeaving" class="java.lang.Boolean" >true</attribute>
      <attribute name="EvacLocationPreference" class="java.lang.String">,791118.102569293,5753461.09876635</attribute>
      <attribute name="InvacLocationPreference" class="java.lang.String">Lorne 47,759947.70243798,5729166.48451614</attribute>
    </attributes>
    <plan selected="yes">
      <activity type="home" x="759288.445969247" y="5729216.87918054" end_time="09:02:00" />
      <leg mode="car" />
      <activity type="work" x="759260.487716657" y="5730253.05845568" end_time="13:34:00" />
      <leg mode="car" />
      <activity type="shops" x="771131.458483015" y="5738716.99199356" end_time="14:08:00" />
      <leg mode="car" />
      <activity type="home" x="759288.445969247" y="5729216.87918054" end_time="19:03:00" />
      <leg mode="car" />
      <activity type="shops" x="771117.511429056" y="5738680.57730346" end_time="21:05:00" />
      <leg mode="car" />
      <activity type="home" x="759288.445969247" y="5729216.87918054" />
    </plan>
  </person>

  

 <person  id= "17" >
    <attributes>
      <attribute name="BDIAgentType" class="java.lang.String" >io.github.agentsoz.ees.agents.bushfire.Resident</attribute>
      <attribute name="HasDependentsAtLocation" class="java.lang.String" ></attribute>
      <attribute name="InitialResponseThreshold" class="java.lang.Double" >0.4</attribute>
      <attribute name="FinalResponseThreshold"   class="java.lang.Double" >0.4</attribute>
      <attribute name="WillGoHomeAfterVisitingDependents" class="java.lang.Boolean" >false</attribute>
      <attribute name="WillGoHomeBeforeLeaving" class="java.lang.Boolean" >false</attribute>
      <attribute name="EvacLocationPreference" class="java.lang.String">Anglesea Shops,778567.629793594,5744455.95718697</attribute>
      <attribute name="InvacLocationPreference" class="java.lang.String">,779086.167574791,5769242.29220358</attribute>
    </attributes>
    <plan selected="yes">
      <activity type="home" x="792693.594146568" y="5754805.06344071" end_time="11:03:00" />
      <leg mode="car" />
      <activity type="work" x="789949.515767737" y="5752727.32925397" end_time="14:32:00" />
      <leg mode="car" />
      <activity type="beach" x="778247.725118489" y="5743352.11543371" end_time="16:26:00" />
      <leg mode="car" />
      <activity type="other" x="778707.911695857" y="5745384.49367177" end_time="18:55:00" />
      <leg mode="car" />
      <activity type="home" x="792693.594146568" y="5754805.06344071" />
    </plan>
  </person>

  

 <person  id= "18" >
    <attributes>
      <attribute name="BDIAgentType" class="java.lang.String" >io.github.agentsoz.ees.agents.bushfire.Resident</attribute>
      <attribute name="HasDependentsAtLocation" class="java.lang.String" ></attribute>
      <attribute name="InitialResponseThreshold" class="java.lang.Double" >0.7</attribute>
      <attribute name="FinalResponseThreshold"   class="java.lang.Double" >0.8</attribute>
      <attribute name="WillGoHomeAfterVisitingDependents" class="java.lang.Boolean" >false</attribute>
      <attribute name="WillGoHomeBeforeLeaving" class="java.lang.Boolean" >true</attribute>
      <attribute name="EvacLocationPreference" class="java.lang.String">,725946.634709856,5753152.68589706</attribute>
      <attribute name="InvacLocationPreference" class="java.lang.String">,791277.478874657,5753976.97934263</attribute>