<?xml version="1.0" encoding="utf-8"?>
  <!DOCTYPE population SYSTEM "http://www.matsim.org/files/dtd/population_v6.dtd">
  <population>
  <!-- ====================================================================== -->

 <person  id= "0" >
    <attributes>
      <attribute name="BDIAgentType" class="java.lang.String" >io.github.agentsoz.ees.agents.bushfire.Resident</attribute>
      <attribute name="hasDependentsAtLocation" class="java.lang.String" ></attribute>
      <attribute name="InitialResponseThreshold" class="java.lang.Double" >0.3</attribute>
      <attribute name="FinalResponseThreshold"   class="java.lang.Double" >0.7</attribute>
      <attribute name="EvacLocationPreference" class="java.lang.String">Torquay Foreshore,790771,5752462</attribute>
      <attribute name="InvacLocationPreference" class="java.lang.String">Anglesea Shops,777471,5742412</attribute>
    </attributes>
    <plan selected="yes">
      <activity type="home" x="790771.334636585" y="5768748.08433854" end_time="13:45:00" />
      <leg mode="car" />
      <activity type="work" x="790089.232999328" y="5754808.22360991" end_time="16:16:00" />
      <leg mode="car" />
      <activity type="beach" x="790813.932219314" y="5752646.56536696" end_time="19:49:00" />
      <leg mode="car" />
      <activity type="home" x="790771.334636585" y="5768748.08433854" end_time="20:14:00" />
      <leg mode="car" />
      <activity type="work" x="789948.044262372" y="5752560.64138924" end_time="23:59:00" />
      <leg mode="car" />
      <activity type="home" x="790771.334636585" y="5768748.08433854" />
    </plan>
  </person>

  

 <person  id= "1" >
    <attributes>
      <attribute name="BDIAgentType" class="java.lang.String" >io.github.agentsoz.ees.agents.bushfire.Resident</attribute>
      <attribute name="hasDependentsAtLocation" class="java.lang.String" ></attribute>
      <attribute name="InitialResponseThreshold" class="java.lang.Double" >0.1</attribute>
      <attribute name="FinalResponseThreshold"   class="java.lang.Double" >0.3</attribute>
      <attribute name="EvacLocationPreference" class="java.lang.String">Torquay Foreshore,790771,5752462</attribute>
      <attribute name="InvacLocationPreference" class="java.lang.String">Anglesea Shops,777471,5742412</attribute>
    </attributes>
    <plan selected="yes">
      <activity type="home" x="771135.269448738" y="5738798.24205801" end_time="09:46:00" />
      <leg mode="car" />
      <activity type="beach" x="778614.794764519" y="5743470.87325903" end_time="11:50:00" />
      <leg mode="car" />
      <activity type="other" x="771396.301080196" y="5738862.70157473" end_time="13:37:00" />
      <leg mode="car" />
      <activity type="home" x="771135.269448738" y="5738798.24205801" end_time="14:34:00" />
      <leg mode="car" />
      <activity type="beach" x="778247.725118489" y="5743352.11543371" end_time="16:38:00" />
      <leg mode="car" />
      <activity type="home" x="771135.269448738" y="5738798.24205801" />
    </plan>
  </person>

  

 <person  id= "2" >
    <attributes>
      <attribute name="BDIAgentType" class="java.lang.String" >io.github.agentsoz.ees.agents.bushfire.Resident</attribute>
      <attribute name="hasDependentsAtLocation" class="java.lang.String" ></attribute>
      <attribute name="InitialResponseThreshold" class="java.lang.Double" >0.7</attribute>
      <attribute name="FinalResponseThreshold"   class="java.lang.Double" >0.7</attribute>
      <attribute name="EvacLocationPreference" class="java.lang.String">Torquay Foreshore,790771,5752462</attribute>
      <attribute name="InvacLocationPreference" class="java.lang.String">Anglesea Shops,777471,5742412</attribute>
    </attributes>
    <plan selected="yes">
      <activity type="home" x="790207.866357266" y="5771038.79333105" end_time="04:21:00" />
      <leg mode="car" />
      <activity type="work" x="759227.068611832" y="5730294.3296384" end_time="13:11:00" />
      <leg mode="car" />
      <activity type="beach" x="790767.229202907" y="5751238.71465189" end_time="15:49:00" />
      <leg mode="car" />
      <activity type="shops" x="770304.616107721" y="5738003.41901043" end_time="17:17:00" />
      <leg mode="car" />
      <activity type="other" x="771396.301080196" y="5738862.70157473" end_time="19:21:00" />
      <leg mode="car" />
      <activity type="home" x="790207.866357266" y="5771038.79333105" />
    </plan>
  </person>

  

 <person  id= "3" >
    <attributes>
      <attribute name="BDIAgentType" class="java.lang.String" >io.github.agentsoz.ees.agents.bushfire.Resident</attribute>
      <attribute name="hasDependentsAtLocation" class="java.lang.String" ></attribute>
      <attribute name="InitialResponseThreshold" class="java.lang.Double" >0.6</attribute>
      <attribute name="FinalResponseThreshold"   class="java.lang.Double" >0.9</attribute>
      <attribute name="EvacLocationPreference" class="java.lang.String">Torquay Foreshore,790771,5752462</attribute>
      <attribute name="InvacLocationPreference" class="java.lang.String">Anglesea Shops,777471,5742412</attribute>
    </attributes>
    <plan selected="yes">
      <activity type="home" x="793363.23490136" y="5771117.74890923" end_time="05:31:00" />
      <leg mode="car" />
      <activity type="work" x="789784.52988212" y="5752607.39803948" end_time="20:04:00" />
      <leg mode="car" />
      <activity type="home" x="793363.23490136" y="5771117.74890923" />
    </plan>
  </person>

  

 <person  id= "4" >
    <attributes>
      <attribute name="BDIAgentType" class="java.lang.String" >io.github.agentsoz.ees.agents.bushfire.Resident</attribute>
      <attribute name="hasDependentsAtLocation" class="java.lang.String" ></attribute>
      <attribute name="InitialResponseThreshold" class="java.lang.Double" >0.4</attribute>
      <attribute name="FinalResponseThreshold"   class="java.lang.Double" >0.9</attribute>
      <attribute name="EvacLocationPreference" class="java.lang.String">Torquay Foreshore,790771,5752462</attribute>
      <attribute name="InvacLocationPreference" class="java.lang.String">Anglesea Shops,777471,5742412</attribute>
    </attributes>
    <plan selected="yes">
      <activity type="home" x="788383.31647653" y="5750907.16308106" end_time="09:05:00" />
      <leg mode="car" />
      <activity type="shops" x="778593.898904213" y="5744467.60593331" end_time="10:12:00" />
      <leg mode="car" />
      <activity type="work" x="778582.406265931" y="5744323.77036824" end_time="14:02:00" />
      <leg mode="car" />
      <activity type="shops" x="770304.616107721" y="5738003.41901043" end_time="16:49:00" />
      <leg mode="car" />
      <activity type="home" x="788383.31647653" y="5750907.16308106" />
    </plan>
  </person>

  

 <person  id= "5" >
    <attributes>
      <attribute name="BDIAgentType" class="java.lang.String" >io.github.agentsoz.ees.agents.bushfire.Resident</attribute>
      <attribute name="hasDependentsAtLocation" class="java.lang.String" >791539.4779599,5767687.84248229</attribute>
      <attribute name="InitialResponseThreshold" class="java.lang.Double" >0.1</attribute>
      <attribute name="FinalResponseThreshold"   class="java.lang.Double" >0.9</attribute>
      <attribute name="EvacLocationPreference" class="java.lang.String">Torquay Foreshore,790771,5752462</attribute>
      <attribute name="InvacLocationPreference" class="java.lang.String">Anglesea Shops,777471,5742412</attribute>
    </attributes>
    <plan selected="yes">
      <activity type="home" x="791538.860936172" y="5767687.03861086" end_time="09:11:00" />
      <leg mode="car" />
      <activity type="work" x="789711.608237217" y="5752825.53879836" end_time="13:27:00" />
      <leg mode="car" />
      <activity type="home" x="791538.860936172" y="5767687.03861086" end_time="14:52:00" />
      <leg mode="car" />
      <activity type="beach" x="790560.824945767" y="5751343.63519774" end_time="16:24:00" />
      <leg mode="car" />
      <activity type="shops" x="778175.520327603" y="5744153.76169213" end_time="18:34:00" />
      <leg mode="car" />
      <activity type="home" x="791538.860936172" y="5767687.03861086" end_time="20:08:00" />
      <leg mode="car" />
      <activity type="work" x="778935.759019689" y="5744540.95448125" end_time="23:59:00" />
      <leg mode="car" />
      <activity type="home" x="791538.860936172" y="5767687.03861086" />
    </plan>
  </person>

  

 <person  id= "6" >
    <attributes>
      <attribute name="BDIAgentType" class="java.lang.String" >io.github.agentsoz.ees.agents.bushfire.Resident</attribute>
      <attribute name="hasDependentsAtLocation" class="java.lang.String" ></attribute>
      <attribute name="InitialResponseThreshold" class="java.lang.Double" >0.6</attribute>
      <attribute name="FinalResponseThreshold"   class="java.lang.Double" >0.6</attribute>
      <attribute name="EvacLocationPreference" class="java.lang.String">Torquay Foreshore,790771,5752462</attribute>
      <attribute name="InvacLocationPreference" class="java.lang.String">Anglesea Shops,777471,5742412</attribute>
    </attributes>
    <plan selected="yes">
      <activity type="home" x="791131.834143987" y="5771530.01477072" end_time="09:21:00" />
      <leg mode="car" />
      <activity type="work" x="789945.260881251" y="5754668.09878902" end_time="17:39:00" />
      <leg mode="car" />
      <activity type="home" x="791131.834143987" y="5771530.01477072" end_time="21:18:00" />
      <leg mode="car" />
      <activity type="shops" x="778525.041539782" y="5744473.70843189" end_time="23:36:00" />
      <leg mode="car" />
      <activity type="home" x="791131.834143987" y="5771530.01477072" />
    </plan>
  </person>

  

 <person  id= "7" >
    <attributes>
      <attribute name="BDIAgentType" class="java.lang.String" >io.github.agentsoz.ees.agents.bushfire.Resident</attribute>
      <attribute name="hasDependentsAtLocation" class="java.lang.String" ></attribute>
      <attribute name="InitialResponseThreshold" class="java.lang.Double" >0.5</attribute>
      <attribute name="FinalResponseThreshold"   class="java.lang.Double" >0.9</attribute>
      <attribute name="EvacLocationPreference" class="java.lang.String">Torquay Foreshore,790771,5752462</attribute>
      <attribute name="InvacLocationPreference" class="java.lang.String">Anglesea Shops,777471,5742412</attribute>
    </attributes>
    <plan selected="yes">
      <activity type="home" x="777460.768466069" y="5744378.84188829" end_time="11:44:00" />
      <leg mode="car" />
      <activity type="work" x="779018.190652848" y="5744557.78793347" end_time="14:33:00" />
      <leg mode="car" />
      <activity type="shops" x="778190.084385339" y="5744106.22590521" end_time="17:45:00" />
      <leg mode="car" />
      <activity type="work" x="779004.534492369" y="5744505.30999418" end_time="21:05:00" />
      <leg mode="car" />
      <activity type="home" x="777460.768466069" y="5744378.84188829" />
    </plan>
  </person>

  

 <person  id= "8" >
    <attributes>
      <attribute name="BDIAgentType" class="java.lang.String" >io.github.agentsoz.ees.agents.bushfire.Resident</attribute>
      <attribute name="hasDependentsAtLocation" class="java.lang.String" ></attribute>
      <attribute name="InitialResponseThreshold" class="java.lang.Double" >0.9</attribute>
      <attribute name="FinalResponseThreshold"   class="java.lang.Double" >0.2</attribute>
      <attribute name="EvacLocationPreference" class="java.lang.String">Torquay Foreshore,790771,5752462</attribute>
      <attribute name="InvacLocationPreference" class="java.lang.String">Anglesea Shops,777471,5742412</attribute>
    </attributes>
    <plan selected="yes">
      <activity type="home" x="797210.243161036" y="5769465.62684759" end_time="11:15:00" />
      <leg mode="car" />
      <activity type="beach" x="790560.824945767" y="5751343.63519774" end_time="12:43:00" />
      <leg mode="car" />
      <activity type="shops" x="790554.831967884" y="5752081.79891957" end_time="16:31:00" />
      <leg mode="car" />
      <activity type="home" x="797210.243161036" y="5769465.62684759" end_time="20:40:00" />
      <leg mode="car" />
      <activity type="shops" x="790330.833186088" y="5752142.2955515" end_time="22:49:00" />
      <leg mode="car" />
      <activity type="home" x="797210.243161036" y="5769465.62684759" />
    </plan>
  </person>

  

 <person  id= "9" >
    <attributes>
      <attribute name="BDIAgentType" class="java.lang.String" >io.github.agentsoz.ees.agents.bushfire.Resident</attribute>
      <attribute name="hasDependentsAtLocation" class="java.lang.String" >796536.647301427,5769297.3520521</attribute>
      <attribute name="InitialResponseThreshold" class="java.lang.Double" >0.2</attribute>
      <attribute name="FinalResponseThreshold"   class="java.lang.Double" >0.8</attribute>
      <attribute name="EvacLocationPreference" class="java.lang.String">Torquay Foreshore,790771,5752462</attribute>
      <attribute name="InvacLocationPreference" class="java.lang.String">Anglesea Shops,777471,5742412</attribute>
    </attributes>
    <plan selected="yes">
      <activity type="home" x="796536.332288721" y="5769297.80087443" end_time="08:01:00" />
      <leg mode="car" />
      <activity type="work" x="789723.616206089" y="5752618.79757824" end_time="12:37:00" />
      <leg mode="car" />
      <activity type="home" x="796536.332288721" y="5769297.80087443" end_time="15:58:00" />
      <leg mode="car" />
      <activity type="work" x="789711.608237217" y="5752825.53879836" end_time="18:58:00" />
      <leg mode="car" />
      <activity type="home" x="796536.332288721" y="5769297.80087443" end_time="23:59:00" />
      <leg mode="car" />
      <activity type="other" x="789777.66185784" y="5753252.7750329" end_time="23:59:00" />
      <leg mode="car" />
      <activity type="home" x="796536.332288721" y="5769297.80087443" />
    </plan>
  </person>

  

 <person  id= "10" >
    <attributes>
      <attribute name="BDIAgentType" class="java.lang.String" >io.github.agentsoz.ees.agents.bushfire.Resident</attribute>
      <attribute name="hasDependentsAtLocation" class="java.lang.String" ></attribute>
      <attribute name="InitialResponseThreshold" class="java.lang.Double" >0.6</attribute>
      <attribute name="FinalResponseThreshold"   class="java.lang.Double" >0.7</attribute>
      <attribute name="EvacLocationPreference" class="java.lang.String">Torquay Foreshore,790771,5752462</attribute>
      <attribute name="InvacLocationPreference" class="java.lang.String">Anglesea Shops,777471,5742412</attribute>
    </attributes>
    <plan selected="yes">
      <activity type="home" x="790385.948089686" y="5768464.33860648" end_time="09:24:00" />
      <leg mode="car" />
      <activity type="work" x="789928.818482896" y="5754771.77138504" end_time="12:46:00" />
      <leg mode="car" />
      <activity type="beach" x="790560.824945767" y="5751343.63519774" end_time="17:33:00" />
      <leg mode="car" />
      <activity type="work" x="790217.814266942" y="5754610.11015813" end_time="21:02:00" />
      <leg mode="car" />
      <activity type="other" x="789848.578586559" y="5753094.78647086" end_time="22:01:00" />
      <leg mode="car" />
      <activity type="home" x="790385.948089686" y="5768464.33860648" />
    </plan>
  </person>

  

 <person  id= "11" >
    <attributes>
      <attribute name="BDIAgentType" class="java.lang.String" >io.github.agentsoz.ees.agents.bushfire.Resident</attribute>
      <attribute name="hasDependentsAtLocation" class="java.lang.String" ></attribute>
      <attribute name="InitialResponseThreshold" class="java.lang.Double" >0.5</attribute>
      <attribute name="FinalResponseThreshold"   class="java.lang.Double" >0.7</attribute>
      <attribute name="EvacLocationPreference" class="java.lang.String">Torquay Foreshore,790771,5752462</attribute>
      <attribute name="InvacLocationPreference" class="java.lang.String">Anglesea Shops,777471,5742412</attribute>
    </attributes>
    <plan selected="yes">
      <activity type="home" x="792796.724319115" y="5766577.64548433" end_time="09:56:00" />
      <leg mode="car" />
      <activity type="work" x="778582.406265931" y="5744323.77036824" end_time="16:06:00" />
      <leg mode="car" />
      <activity type="shops" x="770304.616107721" y="5738003.41901043" end_time="18:20:00" />
      <leg mode="car" />
      <activity type="home" x="792796.724319115" y="5766577.64548433" />
    </plan>
  </person>

  

 <person  id= "12" >
    <attributes>
      <attribute name="BDIAgentType" class="java.lang.String" >io.github.agentsoz.ees.agents.bushfire.Resident</attribute>
      <attribute name="hasDependentsAtLocation" class="java.lang.String" ></attribute>
      <attribute name="InitialResponseThreshold" class="java.lang.Double" >0.8</attribute>
      <attribute name="FinalResponseThreshold"   class="java.lang.Double" >0.8</attribute>
      <attribute name="EvacLocationPreference" class="java.lang.String">Torquay Foreshore,790771,5752462</attribute>
      <attribute name="InvacLocationPreference" class="java.lang.String">Anglesea Shops,777471,5742412</attribute>
    </attributes>
    <plan selected="yes">
      <activity type="home" x="796615.694554208" y="5769674.62932192" end_time="09:03:00" />
      <leg mode="car" />
      <activity type="work" x="770440.66549888" y="5738068.22089847" end_time="12:23:00" />
      <leg mode="car" />
      <activity type="shops" x="771115.470778359" y="5738664.67426718" end_time="14:24:00" />
      <leg mode="car" />
      <activity type="other" x="778707.911695857" y="5745384.49367177" end_time="16:55:00" />
      <leg mode="car" />
      <activity type="work" x="779018.190652848" y="5744557.78793347" end_time="20:02:00" />
      <leg mode="car" />
      <activity type="home" x="796615.694554208" y="5769674.62932192" />
    </plan>
  </person>

  

 <person  id= "13" >
    <attributes>
      <attribute name="BDIAgentType" class="java.lang.String" >io.github.agentsoz.ees.agents.bushfire.Resident</attribute>
      <attribute name="hasDependentsAtLocation" class="java.lang.String" >789996.938582695,5766047.78775588</attribute>
      <attribute name="InitialResponseThreshold" class="java.lang.Double" >0.2</attribute>
      <attribute name="FinalResponseThreshold"   class="java.lang.Double" >0.2</attribute>
      <attribute name="EvacLocationPreference" class="java.lang.String">Torquay Foreshore,790771,5752462</attribute>
      <attribute name="InvacLocationPreference" class="java.lang.String">Anglesea Shops,777471,5742412</attribute>
    </attributes>
    <plan selected="yes">
      <activity type="home" x="789997.37072275" y="5766047.42301098" end_time="13:45:00" />
      <leg mode="car" />
      <activity type="work" x="778882.78709929" y="5744513.27611507" end_time="16:07:00" />
      <leg mode="car" />
      <activity type="home" x="789997.37072275" y="5766047.42301098" end_time="21:28:00" />
      <leg mode="car" />
      <activity type="work" x="779072.591434244" y="5744566.5299771" end_time="23:59:00" />
      <leg mode="car" />
      <activity type="home" x="789997.37072275" y="5766047.42301098" />
    </plan>
  </person>

  

 <person  id= "14" >
    <attributes>
      <attribute name="BDIAgentType" class="java.lang.String" >io.github.agentsoz.ees.agents.bushfire.Resident</attribute>
      <attribute name="hasDependentsAtLocation" class="java.lang.String" >777483.511646862,5744599.1984489</attribute>
      <attribute name="InitialResponseThreshold" class="java.lang.Double" >0.1</attribute>
      <attribute name="FinalResponseThreshold"   class="java.lang.Double" >0.3</attribute>
      <attribute name="EvacLocationPreference" class="java.lang.String">Torquay Foreshore,790771,5752462</attribute>
      <attribute name="InvacLocationPreference" class="java.lang.String">Anglesea Shops,777471,5742412</attribute>
    </attributes>
    <plan selected="yes">
      <activity type="home" x="777483.787878465" y="5744598.42197416" end_time="15:58:00" />
      <leg mode="car" />
      <activity type="work" x="778582.406265931" y="5744323.77036824" end_time="18:25:00" />
      <leg mode="car" />
      <activity type="home" x="777483.787878465" y="5744598.42197416" end_time="21:00:00" />
      <leg mode="car" />
      <activity type="work" x="778582.406265931" y="5744323.77036824" end_time="23:59:00" />
      <leg mode="car" />
      <activity type="home" x="777483.787878465" y="5744598.42197416" />
    </plan>
  </person>

  

 <person  id= "15" >
    <attributes>
      <attribute name="BDIAgentType" class="java.lang.String" >io.github.agentsoz.ees.agents.bushfire.Resident</attribute>
      <attribute name="hasDependentsAtLocation" class="java.lang.String" ></attribute>
      <attribute name="InitialResponseThreshold" class="java.lang.Double" >0.6</attribute>
      <attribute name="FinalResponseThreshold"   class="java.lang.Double" >0.8</attribute>
      <attribute name="EvacLocationPreference" class="java.lang.String">Torquay Foreshore,790771,5752462</attribute>
      <attribute name="InvacLocationPreference" class="java.lang.String">Anglesea Shops,777471,5742412</attribute>
    </attributes>
    <plan selected="yes">
      <activity type="home" x="796554.909205488" y="5768513.4512305" end_time="12:17:00" />
      <leg mode="car" />
      <activity type="work" x="759282.247797748" y="5730319.99583973" end_time="17:05:00" />
      <leg mode="car" />
      <activity type="home" x="796554.909205488" y="5768513.4512305" end_time="20:32:00" />
      <leg mode="car" />
      <activity type="other" x="759157.839965405" y="5730302.57810009" end_time="23:52:00" />
      <leg mode="car" />
      <activity type="home" x="796554.909205488" y="5768513.4512305" />
    </plan>
  </person>

  

 <person  id= "16" >
    <attributes>
      <attribute name="BDIAgentType" class="java.lang.String" >io.github.agentsoz.ees.agents.bushfire.Resident</attribute>
      <attribute name="hasDependentsAtLocation" class="java.lang.String" ></attribute>
      <attribute name="InitialResponseThreshold" class="java.lang.Double" >0.3</attribute>
      <attribute name="FinalResponseThreshold"   class="java.lang.Double" >0.5</attribute>
      <attribute name="EvacLocationPreference" class="java.lang.String">Torquay Foreshore,790771,5752462</attribute>
      <attribute name="InvacLocationPreference" class="java.lang.String">Anglesea Shops,777471,5742412</attribute>
    </attributes>
    <plan selected="yes">
      <activity type="home" x="795387.514506698" y="5768162.55517207" end_time="03:51:00" />
      <leg mode="car" />
      <activity type="other" x="789848.578586559" y="5753094.78647086" end_time="05:32:00" />
      <leg mode="car" />
      <activity type="home" x="795387.514506698" y="5768162.55517207" end_time="09:31:00" />
      <leg mode="car" />
      <activity type="work" x="790026.842206421" y="5754790.55373829" end_time="12:47:00" />
      <leg mode="car" />
      <activity type="shops" x="790544.400714649" y="5752127.56440654" end_time="17:52:00" />
      <leg mode="car" />
      <activity type="work" x="789748.033182453" y="5752663.56664911" end_time="21:13:00" />
      <leg mode="car" />
      <activity type="home" x="795387.514506698" y="5768162.55517207" />
    </plan>
  </person>

  

 <person  id= "17" >
    <attributes>
      <attribute name="BDIAgentType" class="java.lang.String" >io.github.agentsoz.ees.agents.bushfire.Resident</attribute>
      <attribute name="hasDependentsAtLocation" class="java.lang.String" >795439.274991616,5770541.95344349</attribute>
      <attribute name="InitialResponseThreshold" class="java.lang.Double" >0.3</attribute>
      <attribute name="FinalResponseThreshold"   class="java.lang.Double" >0.3</attribute>
      <attribute name="EvacLocationPreference" class="java.lang.String">Torquay Foreshore,790771,5752462</attribute>
      <attribute name="InvacLocationPreference" class="java.lang.String">Anglesea Shops,777471,5742412</attribute>
    </attributes>
    <plan selected="yes">
      <activity type="home" x="795438.823436557" y="5770541.55212209" end_time="08:57:00" />
      <leg mode="car" />
      <activity type="work" x="778582.406265931" y="5744323.77036824" end_time="16:41:00" />
      <leg mode="car" />
      <activity type="shops" x="771136.11027124" y="5738738.72647331" end_time="23:45:00" />
      <leg mode="car" />
      <activity type="home" x="795438.823436557" y="5770541.55212209" />
    </plan>
  </person>

  

 <person  id= "18" >
    <attributes>
      <attribute name="BDIAgentType" class="java.lang.String" >io.github.agentsoz.ees.agents.bushfire.Resident</attribute>
      <attribute name="hasDependentsAtLocation" class="java.lang.String" ></attribute>
      <attribute name="InitialResponseThreshold" class="java.lang.Double" >0.8</attribute>
      <attribute name="FinalResponseThreshold"   class="java.lang.Double" >0.9</attribute>
      <attribute name="EvacLocationPreference" class="java.lang.String">Torquay Foreshore,790771,5752462</attribute>
      <attribute name="InvacLocationPreference" class="java.lang.String">Anglesea Shops,777471,5742412</attribute>
    </attributes>
    <plan selected="yes">
      <activity type="home" x="791898.851359578" y="5767794.19555826" end_time="10:56:00" />
      <leg mode="car" />
      <activity type="work" x="759304.083764353" y="5730247.25466383" end_time="15:52:00" />
      <leg mode="car" />
      <activity type="shops" x="771133.74196042" y="5738729.63087996" end_time="17:05:00" />
      <leg mode="car" />
      <activity type="work" x="770422.86671332" y="5738055.53444599" end_time="20:25:00" />
      <leg mode="car" />
      <activity type="home" x="791898.851359578" y="5767794.19555826" />
    </plan>
  </person>

  

 <person  id= "19" >
    <attributes>
      <attribute name="BDIAgentType" class="java.lang.String" >io.github.agentsoz.ees.agents.bushfire.Resident</attribute>
      <attribute name="hasDependentsAtLocation" class="java.lang.String" ></attribute>
      <attribute name="InitialResponseThreshold" class="java.lang.Double" >0.2</attribute>
      <attribute name="FinalResponseThreshold"   class="java.lang.Double" >0.8</attribute>
      <attribute name="EvacLocationPreference" class="java.lang.String">Torquay Foreshore,790771,5752462</attribute>
      <attribute name="InvacLocationPreference" class="java.lang.String">Anglesea Shops,777471,5742412</attribute>
    </attributes>
    <plan selected="yes">
      <activity type="home" x="792646.375103567" y="5754550.75702701" end_time="09:19:00" />
      <leg mode="car" />
      <activity type="beach" x="790560.824945767" y="5751343.63519774" end_time="11:53:00" />
      <leg mode="car" />
      <activity type="other" x="778707.911695857" y="5745384.49367177" end_time="13:24:00" />
      <leg mode="car" />
      <activity type="work" x="779022.235035913" y="5744569.15549495" end_time="16:17:00" />
      <leg mode="car" />
      <activity type="shops" x="778676.634879683" y="5744445.51248015" end_time="21:47:00" />
      <leg mode="car" />
      <activity type="home" x="792646.375103567" y="5754550.75702701" />
    </plan>
  </person>

  

 <person  id= "20" >
    <attributes>
      <attribute name="BDIAgentType" class="java.lang.String" >io.github.agentsoz.ees.agents.bushfire.Resident</attribute>
      <attribute name="hasDependentsAtLocation" class="java.lang.String" ></attribute>
      <attribute name="InitialResponseThreshold" class="java.lang.Double" >0.9</attribute>
      <attribute name="FinalResponseThreshold"   class="java.lang.Double" >0.2</attribute>
      <attribute name="EvacLocationPreference" class="java.lang.String">Torquay Foreshore,790771,5752462</attribute>
      <attribute name="InvacLocationPreference" class="java.lang.String">Anglesea Shops,777471,5742412</attribute>
    </attributes>
    <plan selected="yes">
      <activity type="home" x="793007.941584438" y="5769181.67642906" end_time="08:02:00" />
      <leg mode="car" />
      <activity type="shops" x="790607.091268723" y="5752217.26031618" end_time="12:23:00" />
      <leg mode="car" />
      <activity type="work" x="789812.462708661" y="5752602.16554825" end_time="21:19:00" />
      <leg mode="car" />
      <activity type="home" x="793007.941584438" y="5769181.67642906" />
    </plan>
  </person>

  

 <person  id= "21" >
    <attributes>
      <attribute name="BDIAgentType" class="java.lang.String" >io.github.agentsoz.ees.agents.bushfire.Resident</attribute>
      <attribute name="hasDependentsAtLocation" class="java.lang.String" ></attribute>
      <attribute name="InitialResponseThreshold" class="java.lang.Double" >0.9</attribute>
      <attribute name="FinalResponseThreshold"   class="java.lang.Double" >0.2</attribute>
      <attribute name="EvacLocationPreference" class="java.lang.String">Torquay Foreshore,790771,5752462</attribute>
      <attribute name="InvacLocationPreference" class="java.lang.String">Anglesea Shops,777471,5742412</attribute>
    </attributes>
    <plan selected="yes">
      <activity type="home" x="795054.242377076" y="5769721.08397466" end_time="05:07:00" />
      <leg mode="car" />
      <activity type="other" x="778707.911695857" y="5745384.49367177" end_time="06:19:00" />
      <leg mode="car" />
      <activity type="shops" x="778676.634879683" y="5744445.51248015" end_time="09:55:00" />
      <leg mode="car" />
      <activity type="home" x="795054.242377076" y="5769721.08397466" end_time="11:46:00" />
      <leg mode="car" />
      <activity type="work" x="778951.134301224" y="5744584.00662151" end_time="14:17:00" />
      <leg mode="car" />
      <activity type="home" x="795054.242377076" y="5769721.08397466" end_time="20:06:00" />
      <leg mode="car" />
      <activity type="shops" x="778501.03482008" y="5744485.067027" end_time="22:24:00" />
      <leg mode="car" />
      <activity type="home" x="795054.242377076" y="5769721.08397466" />
    </plan>
  </person>

  

 <person  id= "22" >
    <attributes>