<?xml version="1.0" encoding="utf-8"?>
  <!DOCTYPE population SYSTEM "http://www.matsim.org/files/dtd/population_v6.dtd">
  <population>
  <!-- ====================================================================== -->
  <person id= "0" >
    <attributes>
      <attribute name="BDIAgentType" class="java.lang.String" >io.github.agentsoz.ees.agents.Resident</attribute>
    </attributes>
    <plan selected="yes">
      <activity type="home" x="758967.368791849" y="5729554.05969265" end_time="05:02:00" />
      <leg mode="car" />
      <activity type="work" x="759260.487716657" y="5730253.05845568" end_time="09:20:00" />
      <leg mode="car" />
      <activity type="home" x="758967.368791849" y="5729554.05969265" end_time="10:02:00" />
      <leg mode="car" />
      <activity type="other" x="759157.839965405" y="5730302.57810009" end_time="13:17:00" />
      <leg mode="car" />
      <activity type="shops" x="759299.781695201" y="5729901.27980373" end_time="15:36:00" />
      <leg mode="car" />
      <activity type="home" x="758967.368791849" y="5729554.05969265" end_time="17:56:00" />
      <leg mode="car" />
      <activity type="work" x="759304.083764353" y="5730247.25466383" end_time="21:33:00" />
      <leg mode="car" />
      <activity type="home" x="758967.368791849" y="5729554.05969265" />
    </plan>
  </person>
  
  <person id= "1" >
    <attributes>
      <attribute name="BDIAgentType" class="java.lang.String" >io.github.agentsoz.ees.agents.Resident</attribute>
    </attributes>
    <plan selected="yes">
      <activity type="home" x="809492.311827968" y="5758790.92513239" end_time="07:30:00" />
      <leg mode="car" />
      <activity type="work" x="759299.555948288" y="5730284.2517027" end_time="14:55:00" />
      <leg mode="car" />
      <activity type="beach" x="790560.824945767" y="5751343.63519774" end_time="16:57:00" />
      <leg mode="car" />
      <activity type="home" x="809492.311827968" y="5758790.92513239" end_time="18:24:00" />
      <leg mode="car" />
      <activity type="shops" x="790330.833186088" y="5752142.2955515" end_time="21:48:00" />
      <leg mode="car" />
      <activity type="work" x="789865.710292914" y="5752626.80718671" end_time="23:59:00" />
      <leg mode="car" />
      <activity type="home" x="809492.311827968" y="5758790.92513239" />
    </plan>
  </person>
  
  <person id= "2" >
    <attributes>
      <attribute name="BDIAgentType" class="java.lang.String" >io.github.agentsoz.ees.agents.Resident</attribute>
    </attributes>
    <plan selected="yes">
      <activity type="home" x="792884.685600269" y="5773684.09382841" end_time="11:57:00" />
      <leg mode="car" />
      <activity type="shops" x="790441.540985005" y="5752068.77830236" end_time="13:30:00" />
      <leg mode="car" />
      <activity type="work" x="789633.874596219" y="5752644.05998922" end_time="17:50:00" />
      <leg mode="car" />
      <activity type="shops" x="790251.07186009" y="5752186.88566304" end_time="20:03:00" />
      <leg mode="car" />
      <activity type="home" x="792884.685600269" y="5773684.09382841" />
    </plan>
  </person>
  
  <person id= "3" >
    <attributes>
      <attribute name="BDIAgentType" class="java.lang.String" >io.github.agentsoz.ees.agents.Resident</attribute>
    </attributes>
    <plan selected="yes">
      <activity type="home" x="811195.484612589" y="5770222.66971479" end_time="09:48:00" />
      <leg mode="car" />
      <activity type="shops" x="790761.173896247" y="5752197.39198677" end_time="11:11:00" />
      <leg mode="car" />
      <activity type="other" x="789816.421674447" y="5753213.33592403" end_time="13:08:00" />
      <leg mode="car" />
      <activity type="beach" x="790560.824945767" y="5751343.63519774" end_time="15:00:00" />
      <leg mode="car" />
      <activity type="other" x="789861.480645674" y="5753138.57302227" end_time="17:45:00" />
      <leg mode="car" />
      <activity type="work" x="778812.892695737" y="5745392.51241282" end_time="21:37:00" />
      <leg mode="car" />
      <activity type="home" x="811195.484612589" y="5770222.66971479" />
    </plan>
  </person>
  
  <person id= "4" >
    <attributes>
      <attribute name="BDIAgentType" class="java.lang.String" >io.github.agentsoz.ees.agents.Resident</attribute>
    </attributes>
    <plan selected="yes">
      <activity type="home" x="815860.042523449" y="5757343.46907996" end_time="08:51:00" />
      <leg mode="car" />
      <activity type="work" x="789872.47261438" y="5752811.26023417" end_time="16:49:00" />
      <leg mode="car" />
      <activity type="shops" x="790705.423369291" y="5752178.19255052" end_time="18:30:00" />
      <leg mode="car" />
      <activity type="home" x="815860.042523449" y="5757343.46907996" />
    </plan>
  </person>
  
  <person id= "5" >
    <attributes>
      <attribute name="BDIAgentType" class="java.lang.String" >io.github.agentsoz.ees.agents.Resident</attribute>
    </attributes>
    <plan selected="yes">
      <activity type="home" x="809507.116091494" y="5758653.54428624" end_time="08:53:00" />
      <leg mode="car" />
      <activity type="shops" x="790251.07186009" y="5752186.88566304" end_time="10:05:00" />
      <leg mode="car" />
      <activity type="home" x="809507.116091494" y="5758653.54428624" end_time="13:16:00" />
      <leg mode="car" />
      <activity type="shops" x="790610.33310894" y="5751830.77249923" end_time="18:36:00" />
      <leg mode="car" />
      <activity type="other" x="789848.578586559" y="5753094.78647086" end_time="20:35:00" />
      <leg mode="car" />
      <activity type="home" x="809507.116091494" y="5758653.54428624" />
    </plan>
  </person>
  
  <person id= "6" >
    <attributes>
      <attribute name="BDIAgentType" class="java.lang.String" >io.github.agentsoz.ees.agents.Resident</attribute>
    </attributes>
    <plan selected="yes">
      <activity type="home" x="796309.539538314" y="5781665.80317923" end_time="04:37:00" />
      <leg mode="car" />
      <activity type="work" x="789711.608237217" y="5752825.53879836" end_time="12:43:00" />
      <leg mode="car" />
      <activity type="other" x="789816.421674447" y="5753213.33592403" end_time="14:11:00" />
      <leg mode="car" />
      <activity type="beach" x="790568.951774962" y="5751325.2355685" end_time="17:34:00" />
      <leg mode="car" />
      <activity type="work" x="789904.114853776" y="5754638.97958416" end_time="20:29:00" />
      <leg mode="car" />
      <activity type="home" x="796309.539538314" y="5781665.80317923" />
    </plan>
  </person>
  
  <person id= "7" >
    <attributes>
      <attribute name="BDIAgentType" class="java.lang.String" >io.github.agentsoz.ees.agents.Resident</attribute>
    </attributes>
    <plan selected="yes">
      <activity type="home" x="724012.539505847" y="5753737.76863689" end_time="05:53:00" />
      <leg mode="car" />
      <activity type="work" x="759252.299771141" y="5730351.6057338" end_time="08:49:00" />
      <leg mode="car" />
      <activity type="beach" x="778614.794764519" y="5743470.87325903" end_time="10:57:00" />
      <leg mode="car" />
      <activity type="home" x="724012.539505847" y="5753737.76863689" end_time="13:39:00" />
      <leg mode="car" />
      <activity type="shops" x="790623.908636152" y="5751913.49720664" end_time="14:01:00" />
      <leg mode="car" />
      <activity type="beach" x="791120.803641559" y="5752820.35296198" end_time="16:41:00" />
      <leg mode="car" />
      <activity type="work" x="759285.160798895" y="5730308.56473034" end_time="20:09:00" />
      <leg mode="car" />
      <activity type="home" x="724012.539505847" y="5753737.76863689" />
    </plan>
  </person>
  
  <person id= "8" >
    <attributes>
      <attribute name="BDIAgentType" class="java.lang.String" >io.github.agentsoz.ees.agents.Resident</attribute>
    </attributes>
    <plan selected="yes">
      <activity type="home" x="795201.488607942" y="5772085.5625478" end_time="09:01:00" />
      <leg mode="car" />
      <activity type="work" x="759247.099570542" y="5730238.92838298" end_time="13:57:00" />
      <leg mode="car" />
      <activity type="beach" x="790568.951774962" y="5751325.2355685" end_time="16:03:00" />
      <leg mode="car" />
      <activity type="shops" x="790590.045474375" y="5751761.08697407" end_time="21:09:00" />
      <leg mode="car" />
      <activity type="home" x="795201.488607942" y="5772085.5625478" />
    </plan>
  </person>
  
  <person id= "9" >
    <attributes>
      <attribute name="BDIAgentType" class="java.lang.String" >io.github.agentsoz.ees.agents.Resident</attribute>
    </attributes>
    <plan selected="yes">
      <activity type="home" x="791711.170993797" y="5775313.62764141" end_time="04:34:00" />
      <leg mode="car" />
      <activity type="work" x="789795.894655112" y="5752605.26816154" end_time="08:05:00" />
      <leg mode="car" />
      <activity type="other" x="759157.839965405" y="5730302.57810009" end_time="11:53:00" />
      <leg mode="car" />
      <activity type="shops" x="790690.630895316" y="5752183.89395097" end_time="13:19:00" />
      <leg mode="car" />
      <activity type="other" x="789816.421674447" y="5753213.33592403" end_time="15:36:00" />
      <leg mode="car" />
      <activity type="home" x="791711.170993797" y="5775313.62764141" end_time="17:46:00" />
      <leg mode="car" />
      <activity type="other" x="771396.301080196" y="5738862.70157473" end_time="19:50:00" />
      <leg mode="car" />
      <activity type="shops" x="790640.086343556" y="5752109.56592258" end_time="20:13:00" />
      <leg mode="car" />
      <activity type="home" x="791711.170993797" y="5775313.62764141" />
    </plan>
  </person>
  
  <person id= "10" >
    <attributes>
      <attribute name="BDIAgentType" class="java.lang.String" >io.github.agentsoz.ees.agents.Resident</attribute>
    </attributes>
    <plan selected="yes">
      <activity type="home" x="776933.567350992" y="5743489.48346531" end_time="08:21:00" />
      <leg mode="car" />
      <activity type="work" x="771181.272486644" y="5738983.61474407" end_time="16:03:00" />
      <leg mode="car" />
      <activity type="shops" x="771136.11027124" y="5738738.72647331" end_time="20:41:00" />
      <leg mode="car" />
      <activity type="home" x="776933.567350992" y="5743489.48346531" />
    </plan>
  </person>
  
  <person id= "11" >
    <attributes>
      <attribute name="BDIAgentType" class="java.lang.String" >io.github.agentsoz.ees.agents.Resident</attribute>
    </attributes>
    <plan selected="yes">
      <activity type="home" x="790384.419460668" y="5765844.90923383" end_time="13:07:00" />
      <leg mode="car" />
      <activity type="work" x="789905.524080843" y="5752584.73973692" end_time="21:55:00" />
      <leg mode="car" />
      <activity type="home" x="790384.419460668" y="5765844.90923383" />
    </plan>
  </person>
  
  <person id= "12" >
    <attributes>
      <attribute name="BDIAgentType" class="java.lang.String" >io.github.agentsoz.ees.agents.Resident</attribute>
    </attributes>
    <plan selected="yes">
      <activity type="home" x="824929.336074499" y="5767876.18846533" end_time="09:22:00" />
      <leg mode="car" />
      <activity type="work" x="789711.608237217" y="5752825.53879836" end_time="13:00:00" />
      <leg mode="car" />
      <activity type="home" x="824929.336074499" y="5767876.18846533" end_time="14:36:00" />
      <leg mode="car" />
      <activity type="shops" x="790042.63086522" y="5752757.09445637" end_time="17:26:00" />
      <leg mode="car" />
      <activity type="home" x="824929.336074499" y="5767876.18846533" end_time="21:09:00" />
      <leg mode="car" />
      <activity type="shops" x="790698.230731453" y="5752226.73915133" end_time="22:44:00" />
      <leg mode="car" />
      <activity type="home" x="824929.336074499" y="5767876.18846533" />
    </plan>
  </person>
  
  <person id= "13" >
    <attributes>
      <attribute name="BDIAgentType" class="java.lang.String" >io.github.agentsoz.ees.agents.Resident</attribute>
    </attributes>
    <plan selected="yes">
      <activity type="home" x="820981.932239397" y="5774506.71740114" end_time="08:03:00" />
      <leg mode="car" />
      <activity type="work" x="789905.524080843" y="5752584.73973692" end_time="12:06:00" />
      <leg mode="car" />
      <activity type="beach" x="790560.824945767" y="5751343.63519774" end_time="17:23:00" />
      <leg mode="car" />
      <activity type="home" x="820981.932239397" y="5774506.71740114" end_time="19:13:00" />
      <leg mode="car" />
      <activity type="shops" x="790602.923924654" y="5751791.55041924" end_time="20:05:00" />
      <leg mode="car" />
      <activity type="other" x="789848.578586559" y="5753094.78647086" end_time="23:00:00" />
      <leg mode="car" />
      <activity type="home" x="820981.932239397" y="5774506.71740114" />
    </plan>
  </person>
  
  <person id= "14" >
    <attributes>
      <attribute name="BDIAgentType" class="java.lang.String" >io.github.agentsoz.ees.agents.Resident</attribute>
    </attributes>
    <plan selected="yes">
      <activity type="home" x="790499.687475013" y="5765723.21900669" end_time="14:55:00" />
      <leg mode="car" />
      <activity type="shops" x="790607.091268723" y="5752217.26031618" end_time="17:06:00" />
      <leg mode="car" />
      <activity type="work" x="789998.973612973" y="5754658.31925142" end_time="20:26:00" />
      <leg mode="car" />
      <activity type="home" x="790499.687475013" y="5765723.21900669" />
    </plan>
  </person>
  
  <person id= "15" >
    <attributes>
      <attribute name="BDIAgentType" class="java.lang.String" >io.github.agentsoz.ees.agents.Resident</attribute>
    </attributes>
    <plan selected="yes">
      <activity type="home" x="824832.868108193" y="5772955.34090437" end_time="00:01:00" />
      <leg mode="car" />
      <activity type="other" x="771396.301080196" y="5738862.70157473" end_time="02:45:00" />
      <leg mode="car" />
      <activity type="home" x="824832.868108193" y="5772955.34090437" end_time="06:02:00" />
      <leg mode="car" />
      <activity type="work" x="790144.875327376" y="5754665.6070045" end_time="11:40:00" />
      <leg mode="car" />
      <activity type="home" x="824832.868108193" y="5772955.34090437" end_time="12:24:00" />
      <leg mode="car" />
      <activity type="other" x="789816.421674447" y="5753213.33592403" end_time="15:05:00" />
      <leg mode="car" />
      <activity type="shops" x="790251.07186009" y="5752186.88566304" end_time="16:04:00" />
      <leg mode="car" />
      <activity type="home" x="824832.868108193" y="5772955.34090437" />
    </plan>
  </person>
  
  <person id= "16" >
    <attributes>
      <attribute name="BDIAgentType" class="java.lang.String" >io.github.agentsoz.ees.agents.Resident</attribute>
    </attributes>
    <plan selected="yes">
      <activity type="home" x="794167.766604642" y="5767176.52897266" end_time="09:58:00" />
      <leg mode="car" />
      <activity type="other" x="789777.66185784" y="5753252.7750329" end_time="10:12:00" />
      <leg mode="car" />
      <activity type="shops" x="790522.949119574" y="5752131.60588274" end_time="17:25:00" />
      <leg mode="car" />
      <activity type="home" x="794167.766604642" y="5767176.52897266" />
    </plan>
  </person>
  
  <person id= "17" >
    <attributes>
      <attribute name="BDIAgentType" class="java.lang.String" >io.github.agentsoz.ees.agents.Resident</attribute>
    </attributes>
    <plan selected="yes">
      <activity type="home" x="794777.07985507" y="5770125.05773076" end_time="08:22:00" />
      <leg mode="car" />
      <activity type="work" x="778951.134301224" y="5744584.00662151" end_time="16:45:00" />
      <leg mode="car" />
      <activity type="home" x="794777.07985507" y="5770125.05773076" end_time="21:21:00" />
      <leg mode="car" />
      <activity type="work" x="790070.788761767" y="5754707.44686597" end_time="23:59:00" />
      <leg mode="car" />
      <activity type="home" x="794777.07985507" y="5770125.05773076" />
    </plan>
  </person>
  
  <person id= "18" >
    <attributes>
      <attribute name="BDIAgentType" class="java.lang.String" >io.github.agentsoz.ees.agents.Resident</attribute>
    </attributes>
    <plan selected="yes">
      <activity type="home" x="792010.552786527" y="5774626.93990676" end_time="08:45:00" />
      <leg mode="car" />
      <activity type="work" x="789944.217326009" y="5752567.63102282" end_time="13:18:00" />
      <leg mode="car" />
      <activity type="home" x="792010.552786527" y="5774626.93990676" end_time="15:17:00" />
      <leg mode="car" />
      <activity type="shops" x="790515.119749484" y="5752261.07037877" end_time="17:41:00" />
      <leg mode="car" />
      <activity type="work" x="759264.496564122" y="5730206.22702863" end_time="21:49:00" />
      <leg mode="car" />
      <activity type="other" x="789861.480645674" y="5753138.57302227" end_time="22:16:00" />
      <leg mode="car" />
      <activity type="home" x="792010.552786527" y="5774626.93990676" />
    </plan>
  </person>
  
  <person id= "19" >
    <attributes>
      <attribute name="BDIAgentType" class="java.lang.String" >io.github.agentsoz.ees.agents.Resident</attribute>
    </attributes>
    <plan selected="yes">
      <activity type="home" x="794053.996668198" y="5778480.3856858" end_time="09:06:00" />
      <leg mode="car" />
      <activity type="shops" x="778209.472911414" y="5744042.87361257" end_time="11:38:00" />
      <leg mode="car" />
      <activity type="work" x="778951.134301224" y="5744584.00662151" end_time="19:32:00" />
      <leg mode="car" />
      <activity type="home" x="794053.996668198" y="5778480.3856858" />
    </plan>
  </person>
  
  <person id= "20" >
    <attributes>
      <attribute name="BDIAgentType" class="java.lang.String" >io.github.agentsoz.ees.agents.Resident</attribute>
    </attributes>
    <plan selected="yes">
      <activity type="home" x="791932.263988999" y="5774195.49958815" end_time="09:19:00" />
      <leg mode="car" />
      <activity type="work" x="789784.52988212" y="5752607.39803948" end_time="21:29:00" />
      <leg mode="car" />
      <activity type="home" x="791932.263988999" y="5774195.49958815" end_time="23:00:00" />
      <leg mode="car" />
      <activity type="other" x="789777.66185784" y="5753252.7750329" end_time="23:59:00" />
      <leg mode="car" />
      <activity type="home" x="791932.263988999" y="5774195.49958815" />
    </plan>
  </person>
  
  <person id= "21" >
    <attributes>
      <attribute name="BDIAgentType" class="java.lang.String" >io.github.agentsoz.ees.agents.Resident</attribute>
    </attributes>
    <plan selected="yes">
      <activity type="home" x="793139.950189453" y="5754306.81092557" end_time="08:15:00" />
      <leg mode="car" />
      <activity type="beach" x="790813.932219314" y="5752646.56536696" end_time="11:08:00" />
      <leg mode="car" />
      <activity type="home" x="793139.950189453" y="5754306.81092557" end_time="13:49:00" />
      <leg mode="car" />
      <activity type="shops" x="790679.653172027" y="5752102.12155741" end_time="14:11:00" />
      <leg mode="car" />
      <activity type="beach" x="790568.951774962" y="5751325.2355685" end_time="17:11:00" />
      <leg mode="car" />
      <activity type="shops" x="790037.734531902" y="5752692.4273591" end_time="21:18:00" />
      <leg mode="car" />
      <activity type="home" x="793139.950189453" y="5754306.81092557" />
    </plan>
  </person>
  
  <person id= "22" >
    <attributes>
      <attribute name="BDIAgentType" class="java.lang.String" >io.github.agentsoz.ees.agents.Resident</attribute>
    </attributes>
    <plan selected="yes">
      <activity type="home" x="751193.438725292" y="5720100.59179883" end_time="13:17:00" />
      <leg mode="car" />
      <activity type="work" x="759282.247797748" y="5730319.99583973" end_time="16:13:00" />
      <leg mode="car" />
      <activity type="shops" x="770304.616107721" y="5738003.41901043" end_time="18:11:00" />
      <leg mode="car" />
      <activity type="home" x="751193.438725292" y="5720100.59179883" end_time="21:39:00" />
      <leg mode="car" />
      <activity type="work" x="759252.299771141" y="5730351.6057338" end_time="23:59:00" />
      <leg mode="car" />
      <activity type="home" x="751193.438725292" y="5720100.59179883" />
    </plan>
  </person>
  
  <person id= "23" >
    <attributes>
      <attribute name="BDIAgentType" class="java.lang.String" >io.github.agentsoz.ees.agents.Resident</attribute>
    </attributes>
    <plan selected="yes">
      <activity type="home" x="803882.125518664" y="5756747.18187916" end_time="09:01:00" />
      <leg mode="car" />
      <activity type="shops" x="790616.250582903" y="5752070.20216552" end_time="11:25:00" />
      <leg mode="car" />
      <activity type="home" x="803882.125518664" y="5756747.18187916" end_time="12:30:00" />
      <leg mode="car" />
      <activity type="work" x="789948.044262372" y="5752560.64138924" end_time="17:19:00" />
      <leg mode="car" />
      <activity type="home" x="803882.125518664" y="5756747.18187916" end_time="18:44:00" />
      <leg mode="car" />
      <activity type="shops" x="790529.886535559" y="5752219.33123197" end_time="22:12:00" />
      <leg mode="car" />
      <activity type="home" x="803882.125518664" y="5756747.18187916" />
    </plan>
  </person>
  
  <person id= "24" >
    <attributes>
      <attribute name="BDIAgentType" class="java.lang.String" >io.github.agentsoz.ees.agents.Resident</attribute>
    </attributes>
    <plan selected="yes">
      <activity type="home" x="793639.174696925" y="5780219.38004719" end_time="09:49:00" />
      <leg mode="car" />
      <activity type="work" x="790089.232999328" y="5754808.22360991" end_time="13:51:00" />
      <leg mode="car" />
      <activity type="home" x="793639.174696925" y="5780219.38004719" end_time="14:32:00" />
      <leg mode="car" />
      <activity type="other" x="789848.578586559" y="5753094.78647086" end_time="18:27:00" />
      <leg mode="car" />
      <activity type="home" x="793639.174696925" y="5780219.38004719" />
    </plan>
  </person>
  
  <person id= "25" >
    <attributes>
      <attribute name="BDIAgentType" class="java.lang.String" >io.github.agentsoz.ees.agents.Resident</attribute>
    </attributes>
    <plan selected="yes">
      <activity type="home" x="792900.455307769" y="5771670.53921669" end_time="08:39:00" />
      <leg mode="car" />
      <activity type="beach" x="790568.951774962" y="5751325.2355685" end_time="11:24:00" />
      <leg mode="car" />
      <activity type="shops" x="790046.316333767" y="5752776.92694075" end_time="12:23:00" />
      <leg mode="car" />
      <activity type="home" x="792900.455307769" y="5771670.53921669" end_time="15:47:00" />
      <leg mode="car" />
      <activity type="shops" x="790330.833186088" y="5752142.2955515" end_time="17:18:00" />
      <leg mode="car" />
      <activity type="work" x="789963.671569669" y="5752644.098624" end_time="23:59:00" />
      <leg mode="car" />
      <activity type="home" x="792900.455307769" y="5771670.53921669" />
    </plan>
  </person>
  
  <person id= "26" >
    <attributes>
      <attribute name="BDIAgentType" class="java.lang.String" >io.github.agentsoz.ees.agents.Resident</attribute>
    </attributes>
    <plan selected="yes">
      <activity type="home" x="789782.939638632" y="5765651.58454185" end_time="11:28:00" />
      <leg mode="car" />
      <activity type="work" x="790187.560680578" y="5754633.2955824" end_time="15:04:00" />
      <leg mode="car" />
      <activity type="beach" x="790896.783195462" y="5752105.10696851" end_time="19:37:00" />
      <leg mode="car" />
      <activity type="home" x="789782.939638632" y="5765651.58454185" />
    </plan>
  </person>
  
  <person id= "27" >
    <attributes>
      <attribute name="BDIAgentType" class="java.lang.String" >io.github.agentsoz.ees.agents.Resident</attribute>
    </attributes>
    <plan selected="yes">
      <activity type="home" x="789168.167177903" y="5765604.69308865" end_time="06:59:00" />
      <leg mode="car" />
      <activity type="work" x="789977.656539064" y="5752742.82728764" end_time="11:13:00" />
      <leg mode="car" />
      <activity type="other" x="789777.66185784" y="5753252.7750329" end_time="12:04:00" />
      <leg mode="car" />
      <activity type="work" x="789850.278003633" y="5754779.17975099" end_time="17:06:00" />
      <leg mode="car" />
      <activity type="home" x="789168.167177903" y="5765604.69308865" end_time="22:01:00" />
      <leg mode="car" />
      <activity type="other" x="789861.480645674" y="5753138.57302227" end_time="23:59:00" />
      <leg mode="car" />
      <activity type="home" x="789168.167177903" y="5765604.69308865" />
    </plan>
  </person>
  
  <person id= "28" >
    <attributes>
      <attribute name="BDIAgentType" class="java.lang.String" >io.github.agentsoz.ees.agents.Resident</attribute>
    </attributes>
    <plan selected="yes">
      <activity type="home" x="792892.510733817" y="5769442.74540001" end_time="09:43:00" />
      <leg mode="car" />
      <activity type="work" x="790089.232999328" y="5754808.22360991" end_time="16:33:00" />
      <leg mode="car" />
      <activity type="shops" x="790654.876631757" y="5752068.43357119" end_time="18:53:00" />
      <leg mode="car" />
      <activity type="home" x="792892.510733817" y="5769442.74540001" />
    </plan>
  </person>
  
  <person id= "29" >
    <attributes>
      <attribute name="BDIAgentType" class="java.lang.String" >io.github.agentsoz.ees.agents.Resident</attribute>
    </attributes>
    <plan selected="yes">
      <activity type="home" x="797329.093521703" y="5787121.23171245" end_time="10:27:00" />
      <leg mode="car" />
      <activity type="other" x="789861.480645674" y="5753138.57302227" end_time="12:59:00" />
      <leg mode="car" />
      <activity type="work" x="789899.201442913" y="5752731.93381612" end_time="16:37:00" />
      <leg mode="car" />
      <activity type="home" x="797329.093521703" y="5787121.23171245" end_time="20:30:00" />
      <leg mode="car" />
      <activity type="other" x="771396.301080196" y="5738862.70157473" end_time="23:28:00" />
      <leg mode="car" />
      <activity type="home" x="797329.093521703" y="5787121.23171245" />
    </plan>
  </person>
  
  <person id= "30" >
    <attributes>
      <attribute name="BDIAgentType" class="java.lang.String" >io.github.agentsoz.ees.agents.Resident</attribute>
    </attributes>
    <plan selected="yes">
      <activity type="home" x="794434.599818932" y="5772088.41756257" end_time="09:42:00" />
      <leg mode="car" />
      <activity type="work" x="759231.174605321" y="5730284.08328322" end_time="16:32:00" />
      <leg mode="car" />
      <activity type="shops" x="790656.027143251" y="5752074.92416087" end_time="18:23:00" />
      <leg mode="car" />
      <activity type="other" x="771396.301080196" y="5738862.70157473" end_time="21:32:00" />
      <leg mode="car" />
      <activity type="home" x="794434.599818932" y="5772088.41756257" end_time="22:13:00" />
      <leg mode="car" />
      <activity type="other" x="771396.301080196" y="5738862.70157473" end_time="23:59:00" />
      <leg mode="car" />
      <activity type="home" x="794434.599818932" y="5772088.41756257" />
    </plan>
  </person>
  
  <person id= "31" >
    <attributes>
      <attribute name="BDIAgentType" class="java.lang.String" >io.github.agentsoz.ees.agents.Resident</attribute>
    </attributes>
    <plan selected="yes">
      <activity type="home" x="793352.453449056" y="5773112.06707351" end_time="10:13:00" />
      <leg mode="car" />
      <activity type="work" x="790104.661130985" y="5754667.21677892" end_time="15:04:00" />
      <leg mode="car" />
      <activity type="home" x="793352.453449056" y="5773112.06707351" end_time="16:12:00" />
      <leg mode="car" />
      <activity type="shops" x="790251.07186009" y="5752186.88566304" end_time="18:39:00" />
      <leg mode="car" />
      <activity type="home" x="793352.453449056" y="5773112.06707351" />
    </plan>
  </person>
  
  <person id= "32" >
    <attributes>
      <attribute name="BDIAgentType" class="java.lang.String" >io.github.agentsoz.ees.agents.Resident</attribute>
    </attributes>
    <plan selected="yes">
      <activity type="home" x="723412.02340744" y="5719820.85154794" end_time="11:59:00" />
      <leg mode="car" />
      <activity type="work" x="789988.030297441" y="5754761.00314166" end_time="14:39:00" />
      <leg mode="car" />
      <activity type="shops" x="790687.230474113" y="5751977.60279315" end_time="16:51:00" />
      <leg mode="car" />
      <activity type="other" x="789848.578586559" y="5753094.78647086" end_time="19:32:00" />
      <leg mode="car" />
      <activity type="shops" x="790544.400714649" y="5752127.56440654" end_time="21:37:00" />
      <leg mode="car" />
      <activity type="home" x="723412.02340744" y="5719820.85154794" />
    </plan>
  </person>
  
  <person id= "33" >
    <attributes>
      <attribute name="BDIAgentType" class="java.lang.String" >io.github.agentsoz.ees.agents.Resident</attribute>
    </attributes>
    <plan selected="yes">
      <activity type="home" x="789764.329216857" y="5771354.10965539" end_time="05:53:00" />
      <leg mode="car" />
      <activity type="work" x="789748.033182453" y="5752663.56664911" end_time="09:46:00" />
      <leg mode="car" />
      <activity type="beach" x="790672.762749222" y="5751729.94020213" end_time="11:17:00" />
      <leg mode="car" />
      <activity type="home" x="789764.329216857" y="5771354.10965539" end_time="13:45:00" />
      <leg mode="car" />
      <activity type="work" x="789714.765002364" y="5752620.46363696" end_time="17:25:00" />
      <leg mode="car" />
      <activity type="shops" x="790609.257897882" y="5752115.36595118" end_time="21:24:00" />
      <leg mode="car" />
      <activity type="home" x="789764.329216857" y="5771354.10965539" />
    </plan>