<?xml version="1.0" encoding="utf-8"?>
  <!DOCTYPE population SYSTEM "http://www.matsim.org/files/dtd/population_v6.dtd">
  <population>
  <!-- ====================================================================== -->
  <person id= "0" >
    <attributes>
      <attribute name="BDIAgentType" class="java.lang.String" >io.github.agentsoz.ees.agents.Resident</attribute>
    </attributes>
    <plan selected="yes">
      <activity type="home" x="790711.668715407" y="5753834.87965062" end_time="08:11:00" />
      <leg mode="car" />
      <activity type="work" x="789633.874596219" y="5752644.05998922" end_time="21:06:00" />
      <leg mode="car" />
      <activity type="shops" x="790459.988865424" y="5752140.64212887" end_time="23:58:00" />
      <leg mode="car" />
      <activity type="home" x="790711.668715407" y="5753834.87965062" />
    </plan>
  </person>
  
  <person id= "1" >
    <attributes>
      <attribute name="BDIAgentType" class="java.lang.String" >io.github.agentsoz.ees.agents.Resident</attribute>
    </attributes>
    <plan selected="yes">
      <activity type="home" x="790953.018203985" y="5752978.51115824" end_time="10:52:00" />
      <leg mode="car" />
      <activity type="beach" x="790568.951774962" y="5751325.2355685" end_time="12:34:00" />
      <leg mode="car" />
      <activity type="other" x="789816.421674447" y="5753213.33592403" end_time="14:41:00" />
      <leg mode="car" />
      <activity type="home" x="790953.018203985" y="5752978.51115824" end_time="17:33:00" />
      <leg mode="car" />
      <activity type="shops" x="790617.806958994" y="5751870.33012979" end_time="18:49:00" />
      <leg mode="car" />
      <activity type="home" x="790953.018203985" y="5752978.51115824" />
    </plan>
  </person>
  
  <person id= "2" >
    <attributes>
      <attribute name="BDIAgentType" class="java.lang.String" >io.github.agentsoz.ees.agents.Resident</attribute>
    </attributes>
    <plan selected="yes">
      <activity type="home" x="793064.326748434" y="5768527.68461722" end_time="07:24:00" />
      <leg mode="car" />
      <activity type="work" x="789711.608237217" y="5752825.53879836" end_time="11:17:00" />
      <leg mode="car" />
      <activity type="home" x="793064.326748434" y="5768527.68461722" end_time="12:24:00" />
      <leg mode="car" />
      <activity type="shops" x="790554.831967884" y="5752081.79891957" end_time="17:03:00" />
      <leg mode="car" />
      <activity type="home" x="793064.326748434" y="5768527.68461722" />
    </plan>
  </person>
  
  <person id= "3" >
    <attributes>
      <attribute name="BDIAgentType" class="java.lang.String" >io.github.agentsoz.ees.agents.Resident</attribute>
    </attributes>
    <plan selected="yes">
      <activity type="home" x="792705.578829365" y="5768358.89669716" end_time="00:01:00" />
      <leg mode="car" />
      <activity type="work" x="789931.256399609" y="5752708.00718517" end_time="04:18:00" />
      <leg mode="car" />
      <activity type="home" x="792705.578829365" y="5768358.89669716" end_time="13:55:00" />
      <leg mode="car" />
      <activity type="shops" x="790638.050911312" y="5752234.06713154" end_time="14:01:00" />
      <leg mode="car" />
      <activity type="home" x="792705.578829365" y="5768358.89669716" end_time="17:08:00" />
      <leg mode="car" />
      <activity type="shops" x="790576.959141788" y="5751691.85551813" end_time="19:54:00" />
      <leg mode="car" />
      <activity type="home" x="792705.578829365" y="5768358.89669716" end_time="21:47:00" />
      <leg mode="car" />
      <activity type="work" x="790104.661130985" y="5754667.21677892" end_time="23:59:00" />
      <leg mode="car" />
      <activity type="home" x="792705.578829365" y="5768358.89669716" />
    </plan>
  </person>
  
  <person id= "4" >
    <attributes>
      <attribute name="BDIAgentType" class="java.lang.String" >io.github.agentsoz.ees.agents.Resident</attribute>
    </attributes>
    <plan selected="yes">
      <activity type="home" x="793340.579244393" y="5768768.75204017" end_time="09:53:00" />
      <leg mode="car" />
      <activity type="work" x="789750.094410624" y="5752828.14676966" end_time="21:10:00" />
      <leg mode="car" />
      <activity type="home" x="793340.579244393" y="5768768.75204017" />
    </plan>
  </person>
  
  <person id= "5" >
    <attributes>
      <attribute name="BDIAgentType" class="java.lang.String" >io.github.agentsoz.ees.agents.Resident</attribute>
    </attributes>
    <plan selected="yes">
      <activity type="home" x="794142.270419436" y="5766918.20449919" end_time="04:34:00" />
      <leg mode="car" />
      <activity type="other" x="789861.480645674" y="5753138.57302227" end_time="07:10:00" />
      <leg mode="car" />
      <activity type="shops" x="790528.588795409" y="5752189.4264091" end_time="08:02:00" />
      <leg mode="car" />
      <activity type="work" x="790130.450909886" y="5754662.56102304" end_time="16:41:00" />
      <leg mode="car" />
      <activity type="home" x="794142.270419436" y="5766918.20449919" />
    </plan>
  </person>
  
  <person id= "6" >
    <attributes>
      <attribute name="BDIAgentType" class="java.lang.String" >io.github.agentsoz.ees.agents.Resident</attribute>
    </attributes>
    <plan selected="yes">
      <activity type="home" x="791372.439321583" y="5770056.34410437" end_time="08:49:00" />
      <leg mode="car" />
      <activity type="work" x="790055.251820108" y="5754657.1331195" end_time="12:38:00" />
      <leg mode="car" />
      <activity type="home" x="791372.439321583" y="5770056.34410437" end_time="14:23:00" />
      <leg mode="car" />
      <activity type="shops" x="790522.949119574" y="5752131.60588274" end_time="19:12:00" />
      <leg mode="car" />
      <activity type="home" x="791372.439321583" y="5770056.34410437" />
    </plan>
  </person>
  
  <person id= "7" >
    <attributes>
      <attribute name="BDIAgentType" class="java.lang.String" >io.github.agentsoz.ees.agents.Resident</attribute>
    </attributes>
    <plan selected="yes">
      <activity type="home" x="791792.037655758" y="5767137.15469857" end_time="09:02:00" />
      <leg mode="car" />
      <activity type="other" x="789816.421674447" y="5753213.33592403" end_time="12:23:00" />
      <leg mode="car" />
      <activity type="work" x="789931.256399609" y="5752708.00718517" end_time="21:09:00" />
      <leg mode="car" />
      <activity type="home" x="791792.037655758" y="5767137.15469857" />
    </plan>
  </person>
  
  <person id= "8" >
    <attributes>
      <attribute name="BDIAgentType" class="java.lang.String" >io.github.agentsoz.ees.agents.Resident</attribute>
    </attributes>
    <plan selected="yes">
      <activity type="home" x="792402.598207491" y="5766290.59386977" end_time="10:29:00" />
      <leg mode="car" />
      <activity type="shops" x="790330.833186088" y="5752142.2955515" end_time="13:26:00" />
      <leg mode="car" />
      <activity type="work" x="790084.518158302" y="5754630.97946948" end_time="20:56:00" />
      <leg mode="car" />
      <activity type="home" x="792402.598207491" y="5766290.59386977" />
    </plan>
  </person>
  
  <person id= "9" >
    <attributes>
      <attribute name="BDIAgentType" class="java.lang.String" >io.github.agentsoz.ees.agents.Resident</attribute>
    </attributes>
    <plan selected="yes">
      <activity type="home" x="790998.104427388" y="5753989.9707878" end_time="00:01:00" />
      <leg mode="car" />
      <activity type="work" x="790084.518158302" y="5754630.97946948" end_time="13:48:00" />
      <leg mode="car" />
      <activity type="beach" x="790568.951774962" y="5751325.2355685" end_time="15:26:00" />
      <leg mode="car" />
      <activity type="shops" x="790600.393449343" y="5752181.6504073" end_time="18:39:00" />
      <leg mode="car" />
      <activity type="home" x="790998.104427388" y="5753989.9707878" end_time="20:43:00" />
      <leg mode="car" />
      <activity type="other" x="789816.421674447" y="5753213.33592403" end_time="23:09:00" />
      <leg mode="car" />
      <activity type="home" x="790998.104427388" y="5753989.9707878" />
    </plan>
  </person>
  
  <person id= "10" >
    <attributes>
      <attribute name="BDIAgentType" class="java.lang.String" >io.github.agentsoz.ees.agents.Resident</attribute>
    </attributes>
    <plan selected="yes">
      <activity type="home" x="790324.728994788" y="5770764.41076244" end_time="10:53:00" />
      <leg mode="car" />
      <activity type="shops" x="778220.356705422" y="5743872.61182503" end_time="13:57:00" />
      <leg mode="car" />
      <activity type="beach" x="790568.951774962" y="5751325.2355685" end_time="17:10:00" />
      <leg mode="car" />
      <activity type="work" x="789892.396399503" y="5754778.39540568" end_time="20:48:00" />
      <leg mode="car" />
      <activity type="other" x="789861.480645674" y="5753138.57302227" end_time="22:24:00" />
      <leg mode="car" />
      <activity type="home" x="790324.728994788" y="5770764.41076244" />
    </plan>
  </person>
  
  <person id= "11" >
    <attributes>
      <attribute name="BDIAgentType" class="java.lang.String" >io.github.agentsoz.ees.agents.Resident</attribute>
    </attributes>
    <plan selected="yes">
      <activity type="home" x="790334.50429531" y="5769250.23475868" end_time="04:46:00" />
      <leg mode="car" />
      <activity type="work" x="789885.795265203" y="5754678.92590916" end_time="08:02:00" />
      <leg mode="car" />
      <activity type="home" x="790334.50429531" y="5769250.23475868" end_time="11:45:00" />
      <leg mode="car" />
      <activity type="work" x="789784.52988212" y="5752607.39803948" end_time="14:59:00" />
      <leg mode="car" />
      <activity type="beach" x="790775.326327373" y="5751338.57918683" end_time="16:57:00" />
      <leg mode="car" />
      <activity type="home" x="790334.50429531" y="5769250.23475868" />
    </plan>
  </person>
  
  <person id= "12" >
    <attributes>
      <attribute name="BDIAgentType" class="java.lang.String" >io.github.agentsoz.ees.agents.Resident</attribute>
    </attributes>
    <plan selected="yes">
      <activity type="home" x="792075.294162466" y="5765810.786055" end_time="08:06:00" />
      <leg mode="car" />
      <activity type="other" x="778707.911695857" y="5745384.49367177" end_time="10:59:00" />
      <leg mode="car" />
      <activity type="shops" x="790251.07186009" y="5752186.88566304" end_time="14:10:00" />
      <leg mode="car" />
      <activity type="beach" x="790560.824945767" y="5751343.63519774" end_time="17:59:00" />
      <leg mode="car" />
      <activity type="home" x="792075.294162466" y="5765810.786055" end_time="19:16:00" />
      <leg mode="car" />
      <activity type="shops" x="790715.63730392" y="5752095.35184949" end_time="23:45:00" />
      <leg mode="car" />
      <activity type="home" x="792075.294162466" y="5765810.786055" />
    </plan>
  </person>
  
  <person id= "13" >
    <attributes>
      <attribute name="BDIAgentType" class="java.lang.String" >io.github.agentsoz.ees.agents.Resident</attribute>
    </attributes>
    <plan selected="yes">
      <activity type="home" x="771027.976162496" y="5738912.90933417" end_time="08:38:00" />
      <leg mode="car" />
      <activity type="work" x="771181.272486644" y="5738983.61474407" end_time="16:37:00" />
      <leg mode="car" />
      <activity type="home" x="771027.976162496" y="5738912.90933417" end_time="19:37:00" />
      <leg mode="car" />
      <activity type="shops" x="771136.11027124" y="5738738.72647331" end_time="21:11:00" />
      <leg mode="car" />
      <activity type="home" x="771027.976162496" y="5738912.90933417" />
    </plan>
  </person>
  
  <person id= "14" >
    <attributes>
      <attribute name="BDIAgentType" class="java.lang.String" >io.github.agentsoz.ees.agents.Resident</attribute>
    </attributes>
    <plan selected="yes">
      <activity type="home" x="793168.403216398" y="5768456.52379801" end_time="00:01:00" />
      <leg mode="car" />
      <activity type="other" x="789861.480645674" y="5753138.57302227" end_time="03:01:00" />
      <leg mode="car" />
      <activity type="home" x="793168.403216398" y="5768456.52379801" end_time="09:13:00" />
      <leg mode="car" />
      <activity type="beach" x="790568.951774962" y="5751325.2355685" end_time="12:30:00" />
      <leg mode="car" />
      <activity type="shops" x="790020.487273533" y="5752638.45408199" end_time="15:39:00" />
      <leg mode="car" />
      <activity type="other" x="789816.421674447" y="5753213.33592403" end_time="16:41:00" />
      <leg mode="car" />
      <activity type="work" x="789860.31214091" y="5754646.95556179" end_time="23:59:00" />
      <leg mode="car" />
      <activity type="home" x="793168.403216398" y="5768456.52379801" />
    </plan>
  </person>
  
  <person id= "15" >
    <attributes>
      <attribute name="BDIAgentType" class="java.lang.String" >io.github.agentsoz.ees.agents.Resident</attribute>
    </attributes>
    <plan selected="yes">
      <activity type="home" x="791613.603563575" y="5754388.36891242" end_time="08:11:00" />
      <leg mode="car" />
      <activity type="work" x="789748.033182453" y="5752663.56664911" end_time="16:04:00" />
      <leg mode="car" />
      <activity type="home" x="791613.603563575" y="5754388.36891242" />
    </plan>
  </person>
  
  <person id= "16" >
    <attributes>
      <attribute name="BDIAgentType" class="java.lang.String" >io.github.agentsoz.ees.agents.Resident</attribute>
    </attributes>
    <plan selected="yes">
      <activity type="home" x="793243.164681342" y="5769917.08544016" end_time="11:33:00" />
      <leg mode="car" />
      <activity type="work" x="789822.986903106" y="5754653.75179087" end_time="14:16:00" />
      <leg mode="car" />
      <activity type="beach" x="790813.932219314" y="5752646.56536696" end_time="16:07:00" />
      <leg mode="car" />
      <activity type="work" x="790144.875327376" y="5754665.6070045" end_time="21:30:00" />
      <leg mode="car" />
      <activity type="home" x="793243.164681342" y="5769917.08544016" />
    </plan>
  </person>
  
  <person id= "17" >
    <attributes>
      <attribute name="BDIAgentType" class="java.lang.String" >io.github.agentsoz.ees.agents.Resident</attribute>
    </attributes>
    <plan selected="yes">
      <activity type="home" x="789276.505528666" y="5752233.00317318" end_time="08:40:00" />
      <leg mode="car" />
      <activity type="work" x="789655.200618739" y="5752812.95534859" end_time="13:27:00" />
      <leg mode="car" />
      <activity type="home" x="789276.505528666" y="5752233.00317318" end_time="14:55:00" />
      <leg mode="car" />
      <activity type="work" x="789748.033182453" y="5752663.56664911" end_time="19:29:00" />
      <leg mode="car" />
      <activity type="home" x="789276.505528666" y="5752233.00317318" end_time="20:06:00" />
      <leg mode="car" />
      <activity type="shops" x="790063.6256741" y="5752775.90116428" end_time="22:35:00" />
      <leg mode="car" />
      <activity type="home" x="789276.505528666" y="5752233.00317318" />
    </plan>
  </person>
  
  <person id= "18" >
    <attributes>
      <attribute name="BDIAgentType" class="java.lang.String" >io.github.agentsoz.ees.agents.Resident</attribute>
    </attributes>
    <plan selected="yes">
      <activity type="home" x="777384.804461775" y="5743059.67471727" end_time="10:50:00" />
      <leg mode="car" />
      <activity type="beach" x="777653.935985867" y="5741894.63303192" end_time="13:51:00" />
      <leg mode="car" />
      <activity type="work" x="779018.190652848" y="5744557.78793347" end_time="20:31:00" />
      <leg mode="car" />
      <activity type="home" x="777384.804461775" y="5743059.67471727" />
    </plan>
  </person>
  
  <person id= "19" >
    <attributes>
      <attribute name="BDIAgentType" class="java.lang.String" >io.github.agentsoz.ees.agents.Resident</attribute>
    </attributes>
    <plan selected="yes">
      <activity type="home" x="792053.808309652" y="5767833.40808061" end_time="09:12:00" />
      <leg mode="car" />
      <activity type="work" x="789942.961687305" y="5754630.51561038" end_time="16:30:00" />
      <leg mode="car" />
      <activity type="shops" x="790045.706790275" y="5752773.6589618" end_time="20:52:00" />
      <leg mode="car" />
      <activity type="home" x="792053.808309652" y="5767833.40808061" />
    </plan>
  </person>
  
  <person id= "20" >
    <attributes>
      <attribute name="BDIAgentType" class="java.lang.String" >io.github.agentsoz.ees.agents.Resident</attribute>
    </attributes>
    <plan selected="yes">
      <activity type="home" x="778359.770832609" y="5744961.68353955" end_time="10:40:00" />
      <leg mode="car" />
      <activity type="work" x="778882.78709929" y="5744513.27611507" end_time="14:48:00" />
      <leg mode="car" />
      <activity type="beach" x="778614.794764519" y="5743470.87325903" end_time="16:14:00" />
      <leg mode="car" />
      <activity type="shops" x="778658.507141575" y="5744452.59159683" end_time="21:51:00" />
      <leg mode="car" />
      <activity type="home" x="778359.770832609" y="5744961.68353955" />
    </plan>
  </person>
  
  <person id= "21" >
    <attributes>
      <attribute name="BDIAgentType" class="java.lang.String" >io.github.agentsoz.ees.agents.Resident</attribute>
    </attributes>
    <plan selected="yes">
      <activity type="home" x="770761.73422207" y="5737959.1279524" end_time="04:03:00" />
      <leg mode="car" />
      <activity type="work" x="770427.693470059" y="5738062.11264301" end_time="09:58:00" />
      <leg mode="car" />
      <activity type="home" x="770761.73422207" y="5737959.1279524" end_time="12:46:00" />
      <leg mode="car" />
      <activity type="beach" x="778247.725118489" y="5743352.11543371" end_time="15:04:00" />
      <leg mode="car" />
      <activity type="shops" x="770304.616107721" y="5738003.41901043" end_time="16:51:00" />
      <leg mode="car" />
      <activity type="work" x="770440.66549888" y="5738068.22089847" end_time="21:28:00" />
      <leg mode="car" />
      <activity type="home" x="770761.73422207" y="5737959.1279524" />
    </plan>
  </person>
  
  <person id= "22" >
    <attributes>
      <attribute name="BDIAgentType" class="java.lang.String" >io.github.agentsoz.ees.agents.Resident</attribute>
    </attributes>
    <plan selected="yes">
      <activity type="home" x="760112.500804643" y="5731697.52613483" end_time="08:35:00" />
      <leg mode="car" />
      <activity type="work" x="759252.299771141" y="5730351.6057338" end_time="12:02:00" />
      <leg mode="car" />
      <activity type="shops" x="759299.781695201" y="5729901.27980373" end_time="15:49:00" />
      <leg mode="car" />
      <activity type="other" x="759157.839965405" y="5730302.57810009" end_time="17:02:00" />
      <leg mode="car" />
      <activity type="home" x="760112.500804643" y="5731697.52613483" end_time="19:06:00" />
      <leg mode="car" />
      <activity type="shops" x="759293.636953272" y="5729990.44320517" end_time="21:14:00" />
      <leg mode="car" />
      <activity type="home" x="760112.500804643" y="5731697.52613483" />
    </plan>
  </person>
  
  <person id= "23" >
    <attributes>
      <attribute name="BDIAgentType" class="java.lang.String" >io.github.agentsoz.ees.agents.Resident</attribute>
    </attributes>
    <plan selected="yes">
      <activity type="home" x="792823.499366031" y="5768291.01506593" end_time="07:45:00" />
      <leg mode="car" />
      <activity type="work" x="789957.998128903" y="5752764.24015916" end_time="10:32:00" />
      <leg mode="car" />
      <activity type="home" x="792823.499366031" y="5768291.01506593" end_time="12:11:00" />
      <leg mode="car" />
      <activity type="beach" x="790896.783195462" y="5752105.10696851" end_time="14:22:00" />
      <leg mode="car" />
      <activity type="shops" x="790590.045474375" y="5751761.08697407" end_time="20:47:00" />
      <leg mode="car" />
      <activity type="home" x="792823.499366031" y="5768291.01506593" />
    </plan>
  </person>
  
  <person id= "24" >
    <attributes>
      <attribute name="BDIAgentType" class="java.lang.String" >io.github.agentsoz.ees.agents.Resident</attribute>
    </attributes>
    <plan selected="yes">
      <activity type="home" x="790158.960500533" y="5767268.00385072" end_time="08:53:00" />
      <leg mode="car" />
      <activity type="work" x="790130.450909886" y="5754662.56102304" end_time="21:28:00" />
      <leg mode="car" />
      <activity type="home" x="790158.960500533" y="5767268.00385072" />
    </plan>
  </person>
  
  <person id= "25" >
    <attributes>
      <attribute name="BDIAgentType" class="java.lang.String" >io.github.agentsoz.ees.agents.Resident</attribute>
    </attributes>
    <plan selected="yes">
      <activity type="home" x="791392.346953677" y="5770149.97728347" end_time="09:46:00" />
      <leg mode="car" />
      <activity type="shops" x="790672.020778074" y="5751959.54621058" end_time="10:14:00" />
      <leg mode="car" />
      <activity type="work" x="789905.524080843" y="5752584.73973692" end_time="14:43:00" />
      <leg mode="car" />
      <activity type="beach" x="791120.803641559" y="5752820.35296198" end_time="16:15:00" />
      <leg mode="car" />
      <activity type="home" x="791392.346953677" y="5770149.97728347" />
    </plan>
  </person>
  
  <person id= "26" >
    <attributes>
      <attribute name="BDIAgentType" class="java.lang.String" >io.github.agentsoz.ees.agents.Resident</attribute>
    </attributes>
    <plan selected="yes">
      <activity type="home" x="793086.186004618" y="5768473.17237843" end_time="08:52:00" />
      <leg mode="car" />
      <activity type="other" x="789777.66185784" y="5753252.7750329" end_time="11:06:00" />
      <leg mode="car" />
      <activity type="beach" x="790568.951774962" y="5751325.2355685" end_time="12:15:00" />
      <leg mode="car" />
      <activity type="work" x="789916.249794762" y="5754673.38089858" end_time="17:27:00" />
      <leg mode="car" />
      <activity type="shops" x="770304.616107721" y="5738003.41901043" end_time="21:54:00" />
      <leg mode="car" />
      <activity type="home" x="793086.186004618" y="5768473.17237843" />
    </plan>
  </person>
  
  <person id= "27" >
    <attributes>
      <attribute name="BDIAgentType" class="java.lang.String" >io.github.agentsoz.ees.agents.Resident</attribute>
    </attributes>
    <plan selected="yes">
      <activity type="home" x="791852.94951564" y="5766334.38013175" end_time="10:52:00" />
      <leg mode="car" />
      <activity type="shops" x="790616.250582903" y="5752070.20216552" end_time="12:34:00" />
      <leg mode="car" />
      <activity type="work" x="789905.524080843" y="5752584.73973692" end_time="16:40:00" />
      <leg mode="car" />
      <activity type="home" x="791852.94951564" y="5766334.38013175" />
    </plan>
  </person>
  
  <person id= "28" >
    <attributes>
      <attribute name="BDIAgentType" class="java.lang.String" >io.github.agentsoz.ees.agents.Resident</attribute>
    </attributes>
    <plan selected="yes">
      <activity type="home" x="793255.717388584" y="5767302.77985906" end_time="09:18:00" />
      <leg mode="car" />
      <activity type="other" x="789777.66185784" y="5753252.7750329" end_time="10:37:00" />
      <leg mode="car" />
      <activity type="home" x="793255.717388584" y="5767302.77985906" end_time="15:32:00" />
      <leg mode="car" />
      <activity type="shops" x="790638.050911312" y="5752234.06713154" end_time="16:53:00" />
      <leg mode="car" />
      <activity type="home" x="793255.717388584" y="5767302.77985906" />
    </plan>
  </person>
  
  <person id= "29" >
    <attributes>
      <attribute name="BDIAgentType" class="java.lang.String" >io.github.agentsoz.ees.agents.Resident</attribute>
    </attributes>
    <plan selected="yes">
      <activity type="home" x="796690.204505443" y="5768033.58493475" end_time="04:07:00" />
      <leg mode="car" />
      <activity type="work" x="789899.201442913" y="5752731.93381612" end_time="08:37:00" />
      <leg mode="car" />
      <activity type="shops" x="778625.507483276" y="5744460.79582655" end_time="10:44:00" />
      <leg mode="car" />
      <activity type="home" x="796690.204505443" y="5768033.58493475" end_time="16:46:00" />
      <leg mode="car" />
      <activity type="work" x="789616.26382872" y="5752676.09056076" end_time="20:09:00" />
      <leg mode="car" />
      <activity type="home" x="796690.204505443" y="5768033.58493475" />
    </plan>
  </person>
  
  <person id= "30" >
    <attributes>
      <attribute name="BDIAgentType" class="java.lang.String" >io.github.agentsoz.ees.agents.Resident</attribute>
    </attributes>
    <plan selected="yes">
      <activity type="home" x="788027.154187783" y="5749943.17761908" end_time="07:22:00" />
      <leg mode="car" />
      <activity type="other" x="789848.578586559" y="5753094.78647086" end_time="09:40:00" />
      <leg mode="car" />
      <activity type="work" x="778812.892695737" y="5745392.51241282" end_time="12:13:00" />
      <leg mode="car" />
      <activity type="other" x="789816.421674447" y="5753213.33592403" end_time="15:53:00" />
      <leg mode="car" />
      <activity type="work" x="789691.063551048" y="5752822.19529835" end_time="18:11:00" />
      <leg mode="car" />
      <activity type="home" x="788027.154187783" y="5749943.17761908" />
    </plan>
  </person>
  
  <person id= "31" >
    <attributes>
      <attribute name="BDIAgentType" class="java.lang.String" >io.github.agentsoz.ees.agents.Resident</attribute>
    </attributes>
    <plan selected="yes">
      <activity type="home" x="790642.930855095" y="5766298.41529278" end_time="04:23:00" />
      <leg mode="car" />
      <activity type="other" x="789816.421674447" y="5753213.33592403" end_time="08:59:00" />
      <leg mode="car" />
      <activity type="work" x="789815.868967721" y="5752821.81748508" end_time="13:10:00" />
      <leg mode="car" />
      <activity type="home" x="790642.930855095" y="5766298.41529278" end_time="14:38:00" />
      <leg mode="car" />
      <activity type="beach" x="790568.951774962" y="5751325.2355685" end_time="16:34:00" />
      <leg mode="car" />
      <activity type="other" x="789861.480645674" y="5753138.57302227" end_time="18:02:00" />
      <leg mode="car" />
      <activity type="home" x="790642.930855095" y="5766298.41529278" />
    </plan>
  </person>
  
  <person id= "32" >
    <attributes>
      <attribute name="BDIAgentType" class="java.lang.String" >io.github.agentsoz.ees.agents.Resident</attribute>
    </attributes>
    <plan selected="yes">
      <activity type="home" x="789887.767382058" y="5768341.65907831" end_time="11:18:00" />
      <leg mode="car" />
      <activity type="other" x="789777.66185784" y="5753252.7750329" end_time="14:36:00" />
      <leg mode="car" />
      <activity type="home" x="789887.767382058" y="5768341.65907831" />
    </plan>
  </person>
  
  <person id= "33" >
    <attributes>
      <attribute name="BDIAgentType" class="java.lang.String" >io.github.agentsoz.ees.agents.Resident</attribute>
    </attributes>
    <plan selected="yes">
      <activity type="home" x="793448.470219072" y="5769576.83691469" end_time="07:36:00" />
      <leg mode="car" />
      <activity type="shops" x="771131.458483015" y="5738716.99199356" end_time="08:29:00" />
      <leg mode="car" />
      <activity type="other" x="789861.480645674" y="5753138.57302227" end_time="10:33:00" />
      <leg mode="car" />
      <activity type="work" x="789725.347459899" y="5752653.08354719" end_time="15:49:00" />
      <leg mode="car" />
      <activity type="other" x="789777.66185784" y="5753252.7750329" end_time="16:58:00" />
      <leg mode="car" />
      <activity type="home" x="793448.470219072" y="5769576.83691469" />
    </plan>
  </person>
  
  <person id= "34" >
    <attributes>
      <attribute name="BDIAgentType" class="java.lang.String" >io.github.agentsoz.ees.agents.Resident</attribute>
    </attributes>
    <plan selected="yes">
      <activity type="home" x="797023.969311979" y="5767542.62794829" end_time="08:23:00" />
      <leg mode="car" />
      <activity type="work" x="789796.453332237" y="5752825.11904453" end_time="13:36:00" />
      <leg mode="car" />
      <activity type="home" x="797023.969311979" y="5767542.62794829" end_time="15:24:00" />
      <leg mode="car" />
      <activity type="work" x="789625.329890894" y="5752797.15267164" end_time="18:14:00" />
      <leg mode="car" />
      <activity type="shops" x="790590.045474375" y="5751761.08697407" end_time="20:41:00" />
      <leg mode="car" />
      <activity type="home" x="797023.969311979" y="5767542.62794829" />
    </plan>
  </person>
  
  <person id= "35" >
    <attributes>
      <attribute name="BDIAgentType" class="java.lang.String" >io.github.agentsoz.ees.agents.Resident</attribute>
    </attributes>
    <plan selected="yes">
      <activity type="home" x="792760.362998604" y="5771602.46787275" end_time="09:19:00" />
      <leg mode="car" />
      <activity type="work" x="789833.453483859" y="5754743.11617852" end_time="16:34:00" />
      <leg mode="car" />
      <activity type="home" x="792760.362998604" y="5771602.46787275" end_time="18:38:00" />
      <leg mode="car" />
      <activity type="shops" x="790045.706790275" y="5752773.6589618" end_time="21:16:00" />
      <leg mode="car" />
      <activity type="home" x="792760.362998604" y="5771602.46787275" end_time="22:49:00" />
      <leg mode="car" />
      <activity type="other" x="789777.66185784" y="5753252.7750329" end_time="23:59:00" />
      <leg mode="car" />
      <activity type="home" x="792760.362998604" y="5771602.46787275" />
    </plan>
  </person>
  
  <person id= "36" >
    <attributes>
      <attribute name="BDIAgentType" class="java.lang.String" >io.github.agentsoz.ees.agents.Resident</attribute>
    </attributes>
    <plan selected="yes">