<?xml version="1.0" encoding="utf-8"?>
  <!DOCTYPE population SYSTEM "http://www.matsim.org/files/dtd/population_v6.dtd">
  <population>
  <!-- ====================================================================== -->

 <person  id= "0" >
    <attributes>
      <attribute name="BDIAgentType" class="java.lang.String" >io.github.agentsoz.ees.agents.bushfire.Resident</attribute>
      <attribute name="HasDependentsAtLocation" class="java.lang.String" >790755.363561854,5753128.49777981</attribute>
      <attribute name="InitialResponseThreshold" class="java.lang.Double" >0.2</attribute>
      <attribute name="FinalResponseThreshold"   class="java.lang.Double" >0.6</attribute>
      <attribute name="WillGoHomeAfterVisitingDependents" class="java.lang.Boolean" >true</attribute>
      <attribute name="WillGoHomeBeforeLeaving" class="java.lang.Boolean" >false</attribute>
      <attribute name="EvacLocationPreference" class="java.lang.String">NSP,770423.143226585,5738052.43434643</attribute>
      <attribute name="InvacLocationPreference" class="java.lang.String">c("", ""),c(790361.455446139, 790361.455446139),c(5754076.74753966, 5754076.74753966)</attribute>
    </attributes>
    <plan selected="yes">
      <activity type="home" x="790756.103288576" y="5753121.71685869" end_time="04:01:00" />
      <leg mode="car" />
      <activity type="other" x="789848.578586559" y="5753094.78647086" end_time="06:58:00" />
      <leg mode="car" />
      <activity type="home" x="790756.103288576" y="5753121.71685869" end_time="09:35:00" />
      <leg mode="car" />
      <activity type="work" x="789856.778527328" y="5754684.78372949" end_time="16:35:00" />
      <leg mode="car" />
      <activity type="shops" x="790714.410411513" y="5752223.69526517" end_time="21:55:00" />
      <leg mode="car" />
      <activity type="home" x="790756.103288576" y="5753121.71685869" />
    </plan>
  </person>

  

 <person  id= "1" >
    <attributes>
      <attribute name="BDIAgentType" class="java.lang.String" >io.github.agentsoz.ees.agents.bushfire.Resident</attribute>
      <attribute name="HasDependentsAtLocation" class="java.lang.String" ></attribute>
      <attribute name="InitialResponseThreshold" class="java.lang.Double" >0.3</attribute>
      <attribute name="FinalResponseThreshold"   class="java.lang.Double" >0.8</attribute>
      <attribute name="WillGoHomeAfterVisitingDependents" class="java.lang.Boolean" >false</attribute>
      <attribute name="WillGoHomeBeforeLeaving" class="java.lang.Boolean" >true</attribute>
      <attribute name="EvacLocationPreference" class="java.lang.String">,790894.719887596,5753891.31030722</attribute>
      <attribute name="InvacLocationPreference" class="java.lang.String">Anglesea 45,778589.114490811,5744706.69288906</attribute>
    </attributes>
    <plan selected="yes">
      <activity type="home" x="779110.744628817" y="5744437.80027202" end_time="08:03:00" />
      <leg mode="car" />
      <activity type="shops" x="778219.968401028" y="5743921.88455228" end_time="10:06:00" />
      <leg mode="car" />
      <activity type="work" x="759304.083764353" y="5730247.25466383" end_time="15:10:00" />
      <leg mode="car" />
      <activity type="shops" x="759299.781695201" y="5729901.27980373" end_time="17:05:00" />
      <leg mode="car" />
      <activity type="work" x="770408.733218234" y="5738045.9648825" end_time="21:48:00" />
      <leg mode="car" />
      <activity type="home" x="779110.744628817" y="5744437.80027202" />
    </plan>
  </person>

  

 <person  id= "2" >
    <attributes>
      <attribute name="BDIAgentType" class="java.lang.String" >io.github.agentsoz.ees.agents.bushfire.Resident</attribute>
      <attribute name="HasDependentsAtLocation" class="java.lang.String" >791314.494680887,5754279.80404067</attribute>
      <attribute name="InitialResponseThreshold" class="java.lang.Double" >0.1</attribute>
      <attribute name="FinalResponseThreshold"   class="java.lang.Double" >0.6</attribute>
      <attribute name="WillGoHomeAfterVisitingDependents" class="java.lang.Boolean" >false</attribute>
      <attribute name="WillGoHomeBeforeLeaving" class="java.lang.Boolean" >false</attribute>
      <attribute name="EvacLocationPreference" class="java.lang.String">Aireys Beach,771581.803662605,5738595.98474283</attribute>
      <attribute name="InvacLocationPreference" class="java.lang.String">,791402.487756118,5754360.795977</attribute>
    </attributes>
    <plan selected="yes">
      <activity type="home" x="791333.536390759" y="5754267.09814199" end_time="08:03:00" />
      <leg mode="car" />
      <activity type="work" x="790063.10030207" y="5754680.77610843" end_time="17:47:00" />
      <leg mode="car" />
      <activity type="shops" x="790018.052700503" y="5752587.65940709" end_time="19:46:00" />
      <leg mode="car" />
      <activity type="home" x="791333.536390759" y="5754267.09814199" />
    </plan>
  </person>

  

 <person  id= "3" >
    <attributes>
      <attribute name="BDIAgentType" class="java.lang.String" >io.github.agentsoz.ees.agents.bushfire.Resident</attribute>
      <attribute name="HasDependentsAtLocation" class="java.lang.String" >787913.710897484,5749867.77075724</attribute>
      <attribute name="InitialResponseThreshold" class="java.lang.Double" >0.2</attribute>
      <attribute name="FinalResponseThreshold"   class="java.lang.Double" >0.3</attribute>
      <attribute name="WillGoHomeAfterVisitingDependents" class="java.lang.Boolean" >true</attribute>
      <attribute name="WillGoHomeBeforeLeaving" class="java.lang.Boolean" >false</attribute>
      <attribute name="EvacLocationPreference" class="java.lang.String">Surf Club,769139.399818792,5737680.05099942</attribute>
      <attribute name="InvacLocationPreference" class="java.lang.String">c("", ""),c(760869.332562489, 760869.332562489),c(5761849.99555124, 5761849.99555124)</attribute>
    </attributes>
    <plan selected="yes">
      <activity type="home" x="787926.451819081" y="5749852.64301129" end_time="04:09:00" />
      <leg mode="car" />
      <activity type="work" x="789820.047866585" y="5754714.39095872" end_time="20:44:00" />
      <leg mode="car" />
      <activity type="home" x="787926.451819081" y="5749852.64301129" />
    </plan>
  </person>

  

 <person  id= "4" >
    <attributes>
      <attribute name="BDIAgentType" class="java.lang.String" >io.github.agentsoz.ees.agents.bushfire.Resident</attribute>
      <attribute name="HasDependentsAtLocation" class="java.lang.String" ></attribute>
      <attribute name="InitialResponseThreshold" class="java.lang.Double" >0.8</attribute>
      <attribute name="FinalResponseThreshold"   class="java.lang.Double" >0.8</attribute>
      <attribute name="WillGoHomeAfterVisitingDependents" class="java.lang.Boolean" >false</attribute>
      <attribute name="WillGoHomeBeforeLeaving" class="java.lang.Boolean" >true</attribute>
      <attribute name="EvacLocationPreference" class="java.lang.String">,725946.634709856,5753152.68589706</attribute>
      <attribute name="InvacLocationPreference" class="java.lang.String">,791118.102569293,5753461.09876635</attribute>
    </attributes>
    <plan selected="yes">
      <activity type="home" x="790935.466515367" y="5753081.59079853" end_time="05:28:00" />
      <leg mode="car" />
      <activity type="other" x="778707.911695857" y="5745384.49367177" end_time="07:54:00" />
      <leg mode="car" />
      <activity type="home" x="790935.466515367" y="5753081.59079853" end_time="08:44:00" />
      <leg mode="car" />
      <activity type="work" x="778582.406265931" y="5744323.77036824" end_time="13:39:00" />
      <leg mode="car" />
      <activity type="home" x="790935.466515367" y="5753081.59079853" end_time="14:31:00" />
      <leg mode="car" />
      <activity type="beach" x="790560.824945767" y="5751343.63519774" end_time="16:42:00" />
      <leg mode="car" />
      <activity type="home" x="790935.466515367" y="5753081.59079853" end_time="19:19:00" />
      <leg mode="car" />
      <activity type="shops" x="759299.781695201" y="5729901.27980373" end_time="21:32:00" />
      <leg mode="car" />
      <activity type="home" x="790935.466515367" y="5753081.59079853" end_time="23:02:00" />
      <leg mode="car" />
      <activity type="other" x="759157.839965405" y="5730302.57810009" end_time="23:59:00" />
      <leg mode="car" />
      <activity type="home" x="790935.466515367" y="5753081.59079853" />
    </plan>
  </person>

  

 <person  id= "5" >
    <attributes>
      <attribute name="BDIAgentType" class="java.lang.String" >io.github.agentsoz.ees.agents.bushfire.Resident</attribute>
      <attribute name="HasDependentsAtLocation" class="java.lang.String" >759845.959135481,5729413.80110892</attribute>
      <attribute name="InitialResponseThreshold" class="java.lang.Double" >0.1</attribute>
      <attribute name="FinalResponseThreshold"   class="java.lang.Double" >0.3</attribute>
      <attribute name="WillGoHomeAfterVisitingDependents" class="java.lang.Boolean" >true</attribute>
      <attribute name="WillGoHomeBeforeLeaving" class="java.lang.Boolean" >false</attribute>
      <attribute name="EvacLocationPreference" class="java.lang.String">,790420.895905102,5752508.39440602</attribute>
      <attribute name="InvacLocationPreference" class="java.lang.String">Lorne 27,758723.838173148,5730425.45198764</attribute>
    </attributes>
    <plan selected="yes">
      <activity type="home" x="759858.033871465" y="5729395.41998451" end_time="05:50:00" />
      <leg mode="car" />
      <activity type="other" x="759157.839965405" y="5730302.57810009" end_time="07:14:00" />
      <leg mode="car" />
      <activity type="home" x="759858.033871465" y="5729395.41998451" end_time="10:10:00" />
      <leg mode="car" />
      <activity type="shops" x="771136.11027124" y="5738738.72647331" end_time="12:12:00" />
      <leg mode="car" />
      <activity type="work" x="759250.796954204" y="5730288.76591084" end_time="16:06:00" />
      <leg mode="car" />
      <activity type="beach" x="778614.794764519" y="5743470.87325903" end_time="19:59:00" />
      <leg mode="car" />
      <activity type="home" x="759858.033871465" y="5729395.41998451" />
    </plan>
  </person>

  

 <person  id= "6" >
    <attributes>
      <attribute name="BDIAgentType" class="java.lang.String" >io.github.agentsoz.ees.agents.bushfire.Resident</attribute>
      <attribute name="HasDependentsAtLocation" class="java.lang.String" ></attribute>
      <attribute name="InitialResponseThreshold" class="java.lang.Double" >0.5</attribute>
      <attribute name="FinalResponseThreshold"   class="java.lang.Double" >0.5</attribute>
      <attribute name="WillGoHomeAfterVisitingDependents" class="java.lang.Boolean" >false</attribute>
      <attribute name="WillGoHomeBeforeLeaving" class="java.lang.Boolean" >false</attribute>
      <attribute name="EvacLocationPreference" class="java.lang.String">Anglesea Shops,778567.629793594,5744455.95718697</attribute>
      <attribute name="InvacLocationPreference" class="java.lang.String">,789692.496028965,5752041.73873462</attribute>
    </attributes>
    <plan selected="yes">
      <activity type="home" x="789774.754246559" y="5752032.10920886" end_time="11:28:00" />
      <leg mode="car" />
      <activity type="other" x="789861.480645674" y="5753138.57302227" end_time="12:30:00" />
      <leg mode="car" />
      <activity type="shops" x="790623.908636152" y="5751913.49720664" end_time="15:46:00" />
      <leg mode="car" />
      <activity type="beach" x="778247.725118489" y="5743352.11543371" end_time="16:22:00" />
      <leg mode="car" />
      <activity type="work" x="779004.534492369" y="5744505.30999418" end_time="21:39:00" />
      <leg mode="car" />
      <activity type="home" x="789774.754246559" y="5752032.10920886" />
    </plan>
  </person>

  

 <person  id= "7" >
    <attributes>
      <attribute name="BDIAgentType" class="java.lang.String" >io.github.agentsoz.ees.agents.bushfire.Resident</attribute>
      <attribute name="HasDependentsAtLocation" class="java.lang.String" ></attribute>
      <attribute name="InitialResponseThreshold" class="java.lang.Double" >0.1</attribute>
      <attribute name="FinalResponseThreshold"   class="java.lang.Double" >0.5</attribute>
      <attribute name="WillGoHomeAfterVisitingDependents" class="java.lang.Boolean" >false</attribute>
      <attribute name="WillGoHomeBeforeLeaving" class="java.lang.Boolean" >true</attribute>
      <attribute name="EvacLocationPreference" class="java.lang.String">,743345.54165134,5752749.80696866</attribute>
      <attribute name="InvacLocationPreference" class="java.lang.String">Anglesea 28,777707.772539894,5743705.34994522</attribute>
    </attributes>
    <plan selected="yes">
      <activity type="home" x="777907.041699972" y="5743670.14054883" end_time="00:01:00" />
      <leg mode="car" />
      <activity type="work" x="778967.646377804" y="5744584.27541027" end_time="05:52:00" />
      <leg mode="car" />
      <activity type="home" x="777907.041699972" y="5743670.14054883" end_time="12:02:00" />
      <leg mode="car" />
      <activity type="shops" x="778190.084385339" y="5744106.22590521" end_time="15:37:00" />
      <leg mode="car" />
      <activity type="beach" x="778614.794764519" y="5743470.87325903" end_time="16:26:00" />
      <leg mode="car" />
      <activity type="shops" x="790330.833186088" y="5752142.2955515" end_time="18:10:00" />
      <leg mode="car" />
      <activity type="other" x="778707.911695857" y="5745384.49367177" end_time="20:32:00" />
      <leg mode="car" />
      <activity type="home" x="777907.041699972" y="5743670.14054883" />
    </plan>
  </person>

  

 <person  id= "8" >
    <attributes>
      <attribute name="BDIAgentType" class="java.lang.String" >io.github.agentsoz.ees.agents.bushfire.Resident</attribute>
      <attribute name="HasDependentsAtLocation" class="java.lang.String" ></attribute>
      <attribute name="InitialResponseThreshold" class="java.lang.Double" >0.6</attribute>
      <attribute name="FinalResponseThreshold"   class="java.lang.Double" >0.7</attribute>
      <attribute name="WillGoHomeAfterVisitingDependents" class="java.lang.Boolean" >false</attribute>
      <attribute name="WillGoHomeBeforeLeaving" class="java.lang.Boolean" >false</attribute>
      <attribute name="EvacLocationPreference" class="java.lang.String">Anglesea 49,778542.4993573,5744576.43001295</attribute>
      <attribute name="InvacLocationPreference" class="java.lang.String">Lorne 50,759204.058562978,5730097.65598972</attribute>
    </attributes>
    <plan selected="yes">
      <activity type="home" x="759144.455969907" y="5730190.35451877" end_time="06:45:00" />
      <leg mode="car" />
      <activity type="shops" x="778219.968401028" y="5743921.88455228" end_time="08:40:00" />
      <leg mode="car" />
      <activity type="other" x="778707.911695857" y="5745384.49367177" end_time="13:18:00" />
      <leg mode="car" />
      <activity type="beach" x="790813.932219314" y="5752646.56536696" end_time="14:04:00" />
      <leg mode="car" />
      <activity type="home" x="759144.455969907" y="5730190.35451877" end_time="16:01:00" />
      <leg mode="car" />
      <activity type="work" x="789812.462708661" y="5752602.16554825" end_time="21:33:00" />
      <leg mode="car" />
      <activity type="home" x="759144.455969907" y="5730190.35451877" />
    </plan>
  </person>

  

 <person  id= "9" >
    <attributes>
      <attribute name="BDIAgentType" class="java.lang.String" >io.github.agentsoz.ees.agents.bushfire.Resident</attribute>
      <attribute name="HasDependentsAtLocation" class="java.lang.String" ></attribute>
      <attribute name="InitialResponseThreshold" class="java.lang.Double" >0.5</attribute>
      <attribute name="FinalResponseThreshold"   class="java.lang.Double" >0.8</attribute>
      <attribute name="WillGoHomeAfterVisitingDependents" class="java.lang.Boolean" >false</attribute>
      <attribute name="WillGoHomeBeforeLeaving" class="java.lang.Boolean" >true</attribute>
      <attribute name="EvacLocationPreference" class="java.lang.String">Anglesea River,778332.606434002,5743835.27909509</attribute>
      <attribute name="InvacLocationPreference" class="java.lang.String">,789692.496028965,5752041.73873462</attribute>
    </attributes>
    <plan selected="yes">
      <activity type="home" x="789616.590820146" y="5752073.82305124" end_time="09:53:00" />
      <leg mode="car" />
      <activity type="work" x="789925.234088988" y="5752561.70349854" end_time="12:46:00" />
      <leg mode="car" />
      <activity type="home" x="789616.590820146" y="5752073.82305124" end_time="15:35:00" />
      <leg mode="car" />
      <activity type="shops" x="771136.11027124" y="5738738.72647331" end_time="16:43:00" />
      <leg mode="car" />
      <activity type="work" x="770440.66549888" y="5738068.22089847" end_time="20:32:00" />
      <leg mode="car" />
      <activity type="home" x="789616.590820146" y="5752073.82305124" />
    </plan>
  </person>

  

 <person  id= "10" >
    <attributes>
      <attribute name="BDIAgentType" class="java.lang.String" >io.github.agentsoz.ees.agents.bushfire.Resident</attribute>
      <attribute name="HasDependentsAtLocation" class="java.lang.String" >788276.401005912,5751190.4247812</attribute>
      <attribute name="InitialResponseThreshold" class="java.lang.Double" >0.1</attribute>
      <attribute name="FinalResponseThreshold"   class="java.lang.Double" >0.7</attribute>
      <attribute name="WillGoHomeAfterVisitingDependents" class="java.lang.Boolean" >true</attribute>
      <attribute name="WillGoHomeBeforeLeaving" class="java.lang.Boolean" >false</attribute>
      <attribute name="EvacLocationPreference" class="java.lang.String">,768145.215009431,5778372.30932458</attribute>
      <attribute name="InvacLocationPreference" class="java.lang.String">,788123.187221687,5751267.90249182</attribute>
    </attributes>
    <plan selected="yes">
      <activity type="home" x="788292.500001265" y="5751178.10362002" end_time="03:18:00" />
      <leg mode="car" />
      <activity type="other" x="771396.301080196" y="5738862.70157473" end_time="05:03:00" />
      <leg mode="car" />
      <activity type="home" x="788292.500001265" y="5751178.10362002" end_time="07:53:00" />
      <leg mode="car" />
      <activity type="shops" x="759294.509545551" y="5729952.01114917" end_time="09:43:00" />
      <leg mode="car" />
      <activity type="home" x="788292.500001265" y="5751178.10362002" end_time="11:49:00" />
      <leg mode="car" />
      <activity type="shops" x="778175.520327603" y="5744153.76169213" end_time="12:29:00" />
      <leg mode="car" />
      <activity type="beach" x="790568.951774962" y="5751325.2355685" end_time="17:19:00" />
      <leg mode="car" />
      <activity type="shops" x="790513.894262572" y="5752072.76467134" end_time="19:40:00" />
      <leg mode="car" />
      <activity type="home" x="788292.500001265" y="5751178.10362002" />
    </plan>
  </person>

  

 <person  id= "11" >
    <attributes>
      <attribute name="BDIAgentType" class="java.lang.String" >io.github.agentsoz.ees.agents.bushfire.Resident</attribute>
      <attribute name="HasDependentsAtLocation" class="java.lang.String" ></attribute>
      <attribute name="InitialResponseThreshold" class="java.lang.Double" >0.6</attribute>
      <attribute name="FinalResponseThreshold"   class="java.lang.Double" >0.8</attribute>
      <attribute name="WillGoHomeAfterVisitingDependents" class="java.lang.Boolean" >false</attribute>
      <attribute name="WillGoHomeBeforeLeaving" class="java.lang.Boolean" >true</attribute>
      <attribute name="EvacLocationPreference" class="java.lang.String">,790375.415976107,5752132.444752</attribute>
      <attribute name="InvacLocationPreference" class="java.lang.String">Lorne 15,759155.666765909,5731030.50268298</attribute>
    </attributes>
    <plan selected="yes">
      <activity type="home" x="759358.479411732" y="5731110.22419995" end_time="09:41:00" />
      <leg mode="car" />
      <activity type="work" x="770422.86671332" y="5738055.53444599" end_time="20:15:00" />
      <leg mode="car" />
      <activity type="home" x="759358.479411732" y="5731110.22419995" />
    </plan>
  </person>

  

 <person  id= "12" >
    <attributes>
      <attribute name="BDIAgentType" class="java.lang.String" >io.github.agentsoz.ees.agents.bushfire.Resident</attribute>
      <attribute name="HasDependentsAtLocation" class="java.lang.String" ></attribute>
      <attribute name="InitialResponseThreshold" class="java.lang.Double" >0.4</attribute>
      <attribute name="FinalResponseThreshold"   class="java.lang.Double" >0.8</attribute>
      <attribute name="WillGoHomeAfterVisitingDependents" class="java.lang.Boolean" >false</attribute>
      <attribute name="WillGoHomeBeforeLeaving" class="java.lang.Boolean" >false</attribute>
      <attribute name="EvacLocationPreference" class="java.lang.String">,768145.215009431,5778372.30932458</attribute>
      <attribute name="InvacLocationPreference" class="java.lang.String">Anglesea 13,777144.138471877,5743335.40821493</attribute>
    </attributes>
    <plan selected="yes">
      <activity type="home" x="777197.97360694" y="5743375.87546423" end_time="08:49:00" />
      <leg mode="car" />
      <activity type="work" x="778934.104365405" y="5744561.56030487" end_time="12:11:00" />
      <leg mode="car" />
      <activity type="home" x="777197.97360694" y="5743375.87546423" end_time="14:53:00" />
      <leg mode="car" />
      <activity type="work" x="779026.515472373" y="5744503.25746978" end_time="19:53:00" />
      <leg mode="car" />
      <activity type="shops" x="778190.084385339" y="5744106.22590521" end_time="20:15:00" />
      <leg mode="car" />
      <activity type="home" x="777197.97360694" y="5743375.87546423" />
    </plan>
  </person>

  

 <person  id= "13" >
    <attributes>
      <attribute name="BDIAgentType" class="java.lang.String" >io.github.agentsoz.ees.agents.bushfire.Resident</attribute>
      <attribute name="HasDependentsAtLocation" class="java.lang.String" ></attribute>
      <attribute name="InitialResponseThreshold" class="java.lang.Double" >0.5</attribute>
      <attribute name="FinalResponseThreshold"   class="java.lang.Double" >0.6</attribute>
      <attribute name="WillGoHomeAfterVisitingDependents" class="java.lang.Boolean" >false</attribute>
      <attribute name="WillGoHomeBeforeLeaving" class="java.lang.Boolean" >false</attribute>
      <attribute name="EvacLocationPreference" class="java.lang.String">Main Beach,759621.645704915,5730564.32432918</attribute>
      <attribute name="InvacLocationPreference" class="java.lang.String">,790894.719887596,5753891.31030722</attribute>
    </attributes>
    <plan selected="yes">
      <activity type="home" x="791100.025776365" y="5753993.6198517" end_time="00:01:00" />
      <leg mode="car" />
      <activity type="work" x="789925.234088988" y="5752561.70349854" end_time="04:27:00" />
      <leg mode="car" />
      <activity type="home" x="791100.025776365" y="5753993.6198517" end_time="09:15:00" />
      <leg mode="car" />
      <activity type="work" x="770440.66549888" y="5738068.22089847" end_time="17:53:00" />
      <leg mode="car" />
      <activity type="beach" x="778614.794764519" y="5743470.87325903" end_time="18:29:00" />
      <leg mode="car" />
      <activity type="shops" x="790681.439730368" y="5752229.89839669" end_time="20:55:00" />
      <leg mode="car" />
      <activity type="work" x="779072.591434244" y="5744566.5299771" end_time="23:59:00" />
      <leg mode="car" />
      <activity type="home" x="791100.025776365" y="5753993.6198517" />
    </plan>
  </person>

  

 <person  id= "14" >
    <attributes>
      <attribute name="BDIAgentType" class="java.lang.String" >io.github.agentsoz.ees.agents.bushfire.Resident</attribute>
      <attribute name="HasDependentsAtLocation" class="java.lang.String" ></attribute>
      <attribute name="InitialResponseThreshold" class="java.lang.Double" >0.2</attribute>
      <attribute name="FinalResponseThreshold"   class="java.lang.Double" >0.2</attribute>
      <attribute name="WillGoHomeAfterVisitingDependents" class="java.lang.Boolean" >false</attribute>
      <attribute name="WillGoHomeBeforeLeaving" class="java.lang.Boolean" >true</attribute>
      <attribute name="EvacLocationPreference" class="java.lang.String">,768145.215009431,5778372.30932458</attribute>
      <attribute name="InvacLocationPreference" class="java.lang.String">Anglesea 36,777183.2489159,5744650.57280355</attribute>
    </attributes>
    <plan selected="yes">
      <activity type="home" x="777779.67730904" y="5744642.66420227" end_time="04:53:00" />
      <leg mode="car" />
      <activity type="other" x="789816.421674447" y="5753213.33592403" end_time="07:09:00" />
      <leg mode="car" />
      <activity type="home" x="777779.67730904" y="5744642.66420227" end_time="10:43:00" />
      <leg mode="car" />
      <activity type="work" x="778994.682746903" y="5744525.34326013" end_time="14:33:00" />
      <leg mode="car" />
      <activity type="shops" x="778175.520327603" y="5744153.76169213" end_time="17:40:00" />
      <leg mode="car" />
      <activity type="work" x="779022.235035913" y="5744569.15549495" end_time="21:52:00" />
      <leg mode="car" />
      <activity type="home" x="777779.67730904" y="5744642.66420227" />
    </plan>
  </person>

  

 <person  id= "15" >
    <attributes>
      <attribute name="BDIAgentType" class="java.lang.String" >io.github.agentsoz.ees.agents.bushfire.Resident</attribute>
      <attribute name="HasDependentsAtLocation" class="java.lang.String" >789002.278413802,5751657.71246074</attribute>
      <attribute name="InitialResponseThreshold" class="java.lang.Double" >0.1</attribute>
      <attribute name="FinalResponseThreshold"   class="java.lang.Double" >0.1</attribute>
      <attribute name="WillGoHomeAfterVisitingDependents" class="java.lang.Boolean" >false</attribute>
      <attribute name="WillGoHomeBeforeLeaving" class="java.lang.Boolean" >false</attribute>
      <attribute name="EvacLocationPreference" class="java.lang.String">,725946.634709856,5753152.68589706</attribute>
      <attribute name="InvacLocationPreference" class="java.lang.String">,789027.924050622,5751720.28015128</attribute>
    </attributes>
    <plan selected="yes">
      <activity type="home" x="789016.64763041" y="5751657.66461394" end_time="08:17:00" />
      <leg mode="car" />
      <activity type="work" x="779119.277432266" y="5744489.66345116" end_time="21:43:00" />
      <leg mode="car" />
      <activity type="home" x="789016.64763041" y="5751657.66461394" />
    </plan>
  </person>

  

 <person  id= "16" >
    <attributes>
      <attribute name="BDIAgentType" class="java.lang.String" >io.github.agentsoz.ees.agents.bushfire.Resident</attribute>
      <attribute name="HasDependentsAtLocation" class="java.lang.String" >789064.172343252,5752152.04962056</attribute>
      <attribute name="InitialResponseThreshold" class="java.lang.Double" >0.2</attribute>
      <attribute name="FinalResponseThreshold"   class="java.lang.Double" >0.4</attribute>
      <attribute name="WillGoHomeAfterVisitingDependents" class="java.lang.Boolean" >false</attribute>
      <attribute name="WillGoHomeBeforeLeaving" class="java.lang.Boolean" >false</attribute>
      <attribute name="EvacLocationPreference" class="java.lang.String">,725946.634709856,5753152.68589706</attribute>
      <attribute name="InvacLocationPreference" class="java.lang.String">,789242.201896266,5751982.74459978</attribute>
    </attributes>
    <plan selected="yes">
      <activity type="home" x="789080.906088486" y="5752146.11002853" end_time="04:17:00" />
      <leg mode="car" />
      <activity type="other" x="778707.911695857" y="5745384.49367177" end_time="06:49:00" />
      <leg mode="car" />
      <activity type="home" x="789080.906088486" y="5752146.11002853" end_time="09:37:00" />
      <leg mode="car" />
      <activity type="work" x="770440.66549888" y="5738068.22089847" end_time="12:54:00" />
      <leg mode="car" />
      <activity type="home" x="789080.906088486" y="5752146.11002853" end_time="14:06:00" />
      <leg mode="car" />
      <activity type="beach" x="778614.794764519" y="5743470.87325903" end_time="17:49:00" />
      <leg mode="car" />
      <activity type="work" x="779072.591434244" y="5744566.5299771" end_time="23:59:00" />
      <leg mode="car" />
      <activity type="home" x="789080.906088486" y="5752146.11002853" />
    </plan>
  </person>

  

 <person  id= "17" >
    <attributes>
      <attribute name="BDIAgentType" class="java.lang.String" >io.github.agentsoz.ees.agents.bushfire.Resident</attribute>
      <attribute name="HasDependentsAtLocation" class="java.lang.String" ></attribute>
      <attribute name="InitialResponseThreshold" class="java.lang.Double" >0.1</attribute>
      <attribute name="FinalResponseThreshold"   class="java.lang.Double" >0.2</attribute>
      <attribute name="WillGoHomeAfterVisitingDependents" class="java.lang.Boolean" >false</attribute>
      <attribute name="WillGoHomeBeforeLeaving" class="java.lang.Boolean" >false</attribute>
      <attribute name="EvacLocationPreference" class="java.lang.String">,768145.215009431,5778372.30932458</attribute>
      <attribute name="InvacLocationPreference" class="java.lang.String">c("", ""),c(790214.161989546, 790214.161989546),c(5777368.73494714, 5777368.73494714)</attribute>
    </attributes>
    <plan selected="yes">
      <activity type="home" x="788244.469150188" y="5750610.71560067" end_time="13:00:00" />
      <leg mode="car" />
      <activity type="beach" x="790767.229202907" y="5751238.71465189" end_time="15:23:00" />
      <leg mode="car" />
      <activity type="shops" x="778190.084385339" y="5744106.22590521" end_time="16:19:00" />
      <leg mode="car" />