<?xml version="1.0" encoding="utf-8"?>
  <!DOCTYPE population SYSTEM "http://www.matsim.org/files/dtd/population_v6.dtd">
  <population>
  <!-- ====================================================================== -->

 <person  id= "0" >
    <attributes>
      <attribute name="BDIAgentType" class="java.lang.String" >io.github.agentsoz.ees.agents.bushfire.Resident</attribute>
      <attribute name="HasDependentsAtLocation" class="java.lang.String" ></attribute>
      <attribute name="InitialResponseThreshold" class="java.lang.Double" >0.3</attribute>
      <attribute name="FinalResponseThreshold"   class="java.lang.Double" >0.7</attribute>
      <attribute name="ProbHomeAfterDependents"   class="java.lang.Double" >0</attribute>
      <attribute name="ProbHomeBeforeLeaving"   class="java.lang.Double" >1</attribute>
      <attribute name="EvacLocationPreference" class="java.lang.String">,725946.634709856,5753152.68589706</attribute>
      <attribute name="InvacLocationPreference" class="java.lang.String">Aireys Inlet 9,771198.523101997,5738591.72262072</attribute>
    </attributes>
    <plan selected="yes">
      <activity type="home" x="770810.659647863" y="5738093.69842332" end_time="08:53:00" />
      <leg mode="car" />
      <activity type="work" x="770440.66549888" y="5738068.22089847" end_time="13:36:00" />
      <leg mode="car" />
      <activity type="beach" x="790560.824945767" y="5751343.63519774" end_time="14:37:00" />
      <leg mode="car" />
      <activity type="home" x="770810.659647863" y="5738093.69842332" end_time="16:30:00" />
      <leg mode="car" />
      <activity type="beach" x="778247.725118489" y="5743352.11543371" end_time="19:43:00" />
      <leg mode="car" />
      <activity type="home" x="770810.659647863" y="5738093.69842332" />
    </plan>
  </person>

  

 <person  id= "1" >
    <attributes>
      <attribute name="BDIAgentType" class="java.lang.String" >io.github.agentsoz.ees.agents.bushfire.Resident</attribute>
      <attribute name="HasDependentsAtLocation" class="java.lang.String" ></attribute>
      <attribute name="InitialResponseThreshold" class="java.lang.Double" >0.6</attribute>
      <attribute name="FinalResponseThreshold"   class="java.lang.Double" >0.7</attribute>
      <attribute name="ProbHomeAfterDependents"   class="java.lang.Double" >0</attribute>
      <attribute name="ProbHomeBeforeLeaving"   class="java.lang.Double" >1</attribute>
      <attribute name="EvacLocationPreference" class="java.lang.String">,725946.634709856,5753152.68589706</attribute>
      <attribute name="InvacLocationPreference" class="java.lang.String">,789027.924050622,5751720.28015128</attribute>
    </attributes>
    <plan selected="yes">
      <activity type="home" x="789125.079875433" y="5751930.4077859" end_time="00:01:00" />
      <leg mode="car" />
      <activity type="work" x="778951.134301224" y="5744584.00662151" end_time="04:16:00" />
      <leg mode="car" />
      <activity type="home" x="789125.079875433" y="5751930.4077859" end_time="08:57:00" />
      <leg mode="car" />
      <activity type="work" x="778980.068339046" y="5744576.673304" end_time="20:10:00" />
      <leg mode="car" />
      <activity type="home" x="789125.079875433" y="5751930.4077859" />
    </plan>
  </person>

  

 <person  id= "2" >
    <attributes>
      <attribute name="BDIAgentType" class="java.lang.String" >io.github.agentsoz.ees.agents.bushfire.Resident</attribute>
      <attribute name="HasDependentsAtLocation" class="java.lang.String" ></attribute>
      <attribute name="InitialResponseThreshold" class="java.lang.Double" >0.9</attribute>
      <attribute name="FinalResponseThreshold"   class="java.lang.Double" >0.9</attribute>
      <attribute name="ProbHomeAfterDependents"   class="java.lang.Double" >0</attribute>
      <attribute name="ProbHomeBeforeLeaving"   class="java.lang.Double" >0</attribute>
      <attribute name="EvacLocationPreference" class="java.lang.String">,768145.215009431,5778372.30932458</attribute>
      <attribute name="InvacLocationPreference" class="java.lang.String">Anglesea 37,777404.516168798,5744686.19426014</attribute>
    </attributes>
    <plan selected="yes">
      <activity type="home" x="777221.834896328" y="5744391.00581128" end_time="08:32:00" />
      <leg mode="car" />
      <activity type="shops" x="778213.972783768" y="5743971.85241149" end_time="10:39:00" />
      <leg mode="car" />
      <activity type="home" x="777221.834896328" y="5744391.00581128" end_time="13:56:00" />
      <leg mode="car" />
      <activity type="work" x="778812.892695737" y="5745392.51241282" end_time="20:57:00" />
      <leg mode="car" />
      <activity type="home" x="777221.834896328" y="5744391.00581128" />
    </plan>
  </person>

  

 <person  id= "3" >
    <attributes>
      <attribute name="BDIAgentType" class="java.lang.String" >io.github.agentsoz.ees.agents.bushfire.Resident</attribute>
      <attribute name="HasDependentsAtLocation" class="java.lang.String" >788800.607734719,5751361.90572484</attribute>
      <attribute name="InitialResponseThreshold" class="java.lang.Double" >0.3</attribute>
      <attribute name="FinalResponseThreshold"   class="java.lang.Double" >0.6</attribute>
      <attribute name="ProbHomeAfterDependents"   class="java.lang.Double" >1</attribute>
      <attribute name="ProbHomeBeforeLeaving"   class="java.lang.Double" >0</attribute>
      <attribute name="EvacLocationPreference" class="java.lang.String">Aireys Beach,771581.803662605,5738595.98474283</attribute>
      <attribute name="InvacLocationPreference" class="java.lang.String">,788594.725322324,5751058.74232864</attribute>
    </attributes>
    <plan selected="yes">
      <activity type="home" x="788802.475943003" y="5751346.55688713" end_time="05:08:00" />
      <leg mode="car" />
      <activity type="work" x="789755.178079888" y="5752746.7085509" end_time="21:28:00" />
      <leg mode="car" />
      <activity type="other" x="789848.578586559" y="5753094.78647086" end_time="23:54:00" />
      <leg mode="car" />
      <activity type="home" x="788802.475943003" y="5751346.55688713" />
    </plan>
  </person>

  

 <person  id= "4" >
    <attributes>
      <attribute name="BDIAgentType" class="java.lang.String" >io.github.agentsoz.ees.agents.bushfire.Resident</attribute>
      <attribute name="HasDependentsAtLocation" class="java.lang.String" >790828.711295885,5754084.19933567</attribute>
      <attribute name="InitialResponseThreshold" class="java.lang.Double" >0.3</attribute>
      <attribute name="FinalResponseThreshold"   class="java.lang.Double" >0.4</attribute>
      <attribute name="ProbHomeAfterDependents"   class="java.lang.Double" >0</attribute>
      <attribute name="ProbHomeBeforeLeaving"   class="java.lang.Double" >0</attribute>
      <attribute name="EvacLocationPreference" class="java.lang.String">Lorne 34,759271.09371883,5729851.2967029</attribute>
      <attribute name="InvacLocationPreference" class="java.lang.String">,790894.719887596,5753891.31030722</attribute>
    </attributes>
    <plan selected="yes">
      <activity type="home" x="790838.486130659" y="5754075.30580762" end_time="00:01:00" />
      <leg mode="car" />
      <activity type="work" x="778917.314476542" y="5744547.29723764" end_time="04:45:00" />
      <leg mode="car" />
      <activity type="home" x="790838.486130659" y="5754075.30580762" end_time="07:48:00" />
      <leg mode="car" />
      <activity type="work" x="779022.235035913" y="5744569.15549495" end_time="10:50:00" />
      <leg mode="car" />
      <activity type="beach" x="778614.794764519" y="5743470.87325903" end_time="12:09:00" />
      <leg mode="car" />
      <activity type="home" x="790838.486130659" y="5754075.30580762" end_time="16:12:00" />
      <leg mode="car" />
      <activity type="shops" x="778601.658940287" y="5744465.93473351" end_time="18:08:00" />
      <leg mode="car" />
      <activity type="home" x="790838.486130659" y="5754075.30580762" />
    </plan>
  </person>

  

 <person  id= "5" >
    <attributes>
      <attribute name="BDIAgentType" class="java.lang.String" >io.github.agentsoz.ees.agents.bushfire.Resident</attribute>
      <attribute name="HasDependentsAtLocation" class="java.lang.String" >771019.80382077,5738152.31709791</attribute>
      <attribute name="InitialResponseThreshold" class="java.lang.Double" >0.2</attribute>
      <attribute name="FinalResponseThreshold"   class="java.lang.Double" >0.3</attribute>
      <attribute name="ProbHomeAfterDependents"   class="java.lang.Double" >1</attribute>
      <attribute name="ProbHomeBeforeLeaving"   class="java.lang.Double" >0</attribute>
      <attribute name="EvacLocationPreference" class="java.lang.String">,790894.719887596,5753891.31030722</attribute>
      <attribute name="InvacLocationPreference" class="java.lang.String">Aireys Inlet 1,770717.487271477,5737870.61025887</attribute>
    </attributes>
    <plan selected="yes">
      <activity type="home" x="771034.200338941" y="5738137.61600909" end_time="05:08:00" />
      <leg mode="car" />
      <activity type="work" x="770414.805305086" y="5738048.92184389" end_time="08:13:00" />
      <leg mode="car" />
      <activity type="home" x="771034.200338941" y="5738137.61600909" end_time="11:51:00" />
      <leg mode="car" />
      <activity type="shops" x="770386.166527788" y="5738024.7335014" end_time="13:15:00" />
      <leg mode="car" />
      <activity type="work" x="770422.86671332" y="5738055.53444599" end_time="17:26:00" />
      <leg mode="car" />
      <activity type="home" x="771034.200338941" y="5738137.61600909" end_time="20:24:00" />
      <leg mode="car" />
      <activity type="work" x="770440.66549888" y="5738068.22089847" end_time="23:59:00" />
      <leg mode="car" />
      <activity type="home" x="771034.200338941" y="5738137.61600909" />
    </plan>
  </person>

  

 <person  id= "6" >
    <attributes>
      <attribute name="BDIAgentType" class="java.lang.String" >io.github.agentsoz.ees.agents.bushfire.Resident</attribute>
      <attribute name="HasDependentsAtLocation" class="java.lang.String" >789627.800346136,5751947.45417929</attribute>
      <attribute name="InitialResponseThreshold" class="java.lang.Double" >0.3</attribute>
      <attribute name="FinalResponseThreshold"   class="java.lang.Double" >0.5</attribute>
      <attribute name="ProbHomeAfterDependents"   class="java.lang.Double" >0</attribute>
      <attribute name="ProbHomeBeforeLeaving"   class="java.lang.Double" >0</attribute>
      <attribute name="EvacLocationPreference" class="java.lang.String">,743345.54165134,5752749.80696866</attribute>
      <attribute name="InvacLocationPreference" class="java.lang.String">,789027.924050622,5751720.28015128</attribute>
    </attributes>
    <plan selected="yes">
      <activity type="home" x="789630.69902187" y="5751944.46977604" end_time="06:58:00" />
      <leg mode="car" />
      <activity type="work" x="789850.278003633" y="5754779.17975099" end_time="10:13:00" />
      <leg mode="car" />
      <activity type="home" x="789630.69902187" y="5751944.46977604" end_time="12:47:00" />
      <leg mode="car" />
      <activity type="shops" x="778175.520327603" y="5744153.76169213" end_time="14:40:00" />
      <leg mode="car" />
      <activity type="beach" x="791120.803641559" y="5752820.35296198" end_time="19:07:00" />
      <leg mode="car" />
      <activity type="shops" x="790651.47632163" y="5752052.52107273" end_time="21:47:00" />
      <leg mode="car" />
      <activity type="home" x="789630.69902187" y="5751944.46977604" />
    </plan>
  </person>

  

 <person  id= "7" >
    <attributes>
      <attribute name="BDIAgentType" class="java.lang.String" >io.github.agentsoz.ees.agents.bushfire.Resident</attribute>
      <attribute name="HasDependentsAtLocation" class="java.lang.String" ></attribute>
      <attribute name="InitialResponseThreshold" class="java.lang.Double" >0.6</attribute>
      <attribute name="FinalResponseThreshold"   class="java.lang.Double" >0.9</attribute>
      <attribute name="ProbHomeAfterDependents"   class="java.lang.Double" >0</attribute>
      <attribute name="ProbHomeBeforeLeaving"   class="java.lang.Double" >0</attribute>
      <attribute name="EvacLocationPreference" class="java.lang.String">Anglesea Shops,778567.629793594,5744455.95718697</attribute>
      <attribute name="InvacLocationPreference" class="java.lang.String">Lorne 8,759677.944319661,5731236.37296036</attribute>
    </attributes>
    <plan selected="yes">
      <activity type="home" x="759657.535340564" y="5731311.3498277" end_time="04:25:00" />
      <leg mode="car" />
      <activity type="work" x="759292.525850378" y="5730231.89316184" end_time="12:47:00" />
      <leg mode="car" />
      <activity type="shops" x="759308.670167333" y="5730159.38066925" end_time="14:26:00" />
      <leg mode="car" />
      <activity type="work" x="770440.66549888" y="5738068.22089847" end_time="18:28:00" />
      <leg mode="car" />
      <activity type="home" x="759657.535340564" y="5731311.3498277" end_time="21:02:00" />
      <leg mode="car" />
      <activity type="work" x="771181.272486644" y="5738983.61474407" end_time="23:59:00" />
      <leg mode="car" />
      <activity type="home" x="759657.535340564" y="5731311.3498277" />
    </plan>
  </person>

  

 <person  id= "8" >
    <attributes>
      <attribute name="BDIAgentType" class="java.lang.String" >io.github.agentsoz.ees.agents.bushfire.Resident</attribute>
      <attribute name="HasDependentsAtLocation" class="java.lang.String" >777549.958411195,5744562.81852856</attribute>
      <attribute name="InitialResponseThreshold" class="java.lang.Double" >0.1</attribute>
      <attribute name="FinalResponseThreshold"   class="java.lang.Double" >0.8</attribute>
      <attribute name="ProbHomeAfterDependents"   class="java.lang.Double" >1</attribute>
      <attribute name="ProbHomeBeforeLeaving"   class="java.lang.Double" >0</attribute>
      <attribute name="EvacLocationPreference" class="java.lang.String">,791477.824726652,5753417.74149688</attribute>
      <attribute name="InvacLocationPreference" class="java.lang.String">Anglesea 40,777664.190155953,5744528.00617706</attribute>
    </attributes>
    <plan selected="yes">
      <activity type="home" x="777559.406938367" y="5744545.20348012" end_time="00:01:00" />
      <leg mode="car" />
      <activity type="work" x="778812.892695737" y="5745392.51241282" end_time="05:05:00" />
      <leg mode="car" />
      <activity type="home" x="777559.406938367" y="5744545.20348012" end_time="12:04:00" />
      <leg mode="car" />
      <activity type="shops" x="778220.356705422" y="5743872.61182503" end_time="17:04:00" />
      <leg mode="car" />
      <activity type="work" x="778964.99962631" y="5744574.42412064" end_time="23:59:00" />
      <leg mode="car" />
      <activity type="home" x="777559.406938367" y="5744545.20348012" />
    </plan>
  </person>

  

 <person  id= "9" >
    <attributes>
      <attribute name="BDIAgentType" class="java.lang.String" >io.github.agentsoz.ees.agents.bushfire.Resident</attribute>
      <attribute name="HasDependentsAtLocation" class="java.lang.String" >769641.274209959,5738071.89725374</attribute>
      <attribute name="InitialResponseThreshold" class="java.lang.Double" >0.2</attribute>
      <attribute name="FinalResponseThreshold"   class="java.lang.Double" >0.3</attribute>
      <attribute name="ProbHomeAfterDependents"   class="java.lang.Double" >0</attribute>
      <attribute name="ProbHomeBeforeLeaving"   class="java.lang.Double" >0</attribute>
      <attribute name="EvacLocationPreference" class="java.lang.String">,790894.719887596,5753891.31030722</attribute>
      <attribute name="InvacLocationPreference" class="java.lang.String">Fairhaven 3,769632.031771744,5738126.20831395</attribute>
    </attributes>
    <plan selected="yes">
      <activity type="home" x="769649.908127049" y="5738054.82351941" end_time="08:39:00" />
      <leg mode="car" />
      <activity type="shops" x="770326.526265268" y="5738019.45766535" end_time="10:25:00" />
      <leg mode="car" />
      <activity type="home" x="769649.908127049" y="5738054.82351941" end_time="12:47:00" />
      <leg mode="car" />
      <activity type="work" x="789931.256399609" y="5752708.00718517" end_time="17:19:00" />
      <leg mode="car" />
      <activity type="home" x="769649.908127049" y="5738054.82351941" end_time="19:52:00" />
      <leg mode="car" />
      <activity type="shops" x="770304.616107721" y="5738003.41901043" end_time="20:28:00" />
      <leg mode="car" />
      <activity type="work" x="789725.347459899" y="5752653.08354719" end_time="23:59:00" />
      <leg mode="car" />
      <activity type="home" x="769649.908127049" y="5738054.82351941" />
    </plan>
  </person>

  

 <person  id= "10" >
    <attributes>
      <attribute name="BDIAgentType" class="java.lang.String" >io.github.agentsoz.ees.agents.bushfire.Resident</attribute>
      <attribute name="HasDependentsAtLocation" class="java.lang.String" ></attribute>
      <attribute name="InitialResponseThreshold" class="java.lang.Double" >0.1</attribute>
      <attribute name="FinalResponseThreshold"   class="java.lang.Double" >0.7</attribute>
      <attribute name="ProbHomeAfterDependents"   class="java.lang.Double" >0</attribute>
      <attribute name="ProbHomeBeforeLeaving"   class="java.lang.Double" >1</attribute>
      <attribute name="EvacLocationPreference" class="java.lang.String">Anglesea River,778332.606434002,5743835.27909509</attribute>
      <attribute name="InvacLocationPreference" class="java.lang.String">,791277.478874657,5753976.97934263</attribute>
    </attributes>
    <plan selected="yes">
      <activity type="home" x="791453.528214104" y="5754166.03213343" end_time="06:15:00" />
      <leg mode="car" />
      <activity type="work" x="789963.671569669" y="5752644.098624" end_time="11:20:00" />
      <leg mode="car" />
      <activity type="other" x="778707.911695857" y="5745384.49367177" end_time="13:35:00" />
      <leg mode="car" />
      <activity type="beach" x="778614.794764519" y="5743470.87325903" end_time="14:24:00" />
      <leg mode="car" />
      <activity type="shops" x="778175.520327603" y="5744153.76169213" end_time="17:19:00" />
      <leg mode="car" />
      <activity type="work" x="778980.068339046" y="5744576.673304" end_time="21:45:00" />
      <leg mode="car" />
      <activity type="home" x="791453.528214104" y="5754166.03213343" />
    </plan>
  </person>

  

 <person  id= "11" >
    <attributes>
      <attribute name="BDIAgentType" class="java.lang.String" >io.github.agentsoz.ees.agents.bushfire.Resident</attribute>
      <attribute name="HasDependentsAtLocation" class="java.lang.String" >767316.998963126,5763029.08238215</attribute>
      <attribute name="InitialResponseThreshold" class="java.lang.Double" >0.2</attribute>
      <attribute name="FinalResponseThreshold"   class="java.lang.Double" >0.8</attribute>
      <attribute name="ProbHomeAfterDependents"   class="java.lang.Double" >0</attribute>
      <attribute name="ProbHomeBeforeLeaving"   class="java.lang.Double" >0</attribute>
      <attribute name="EvacLocationPreference" class="java.lang.String">Aireys Pub,770925.250436505,5738417.25117341</attribute>
      <attribute name="InvacLocationPreference" class="java.lang.String">,767307.969535786,5762954.53265431</attribute>
    </attributes>
    <plan selected="yes">
      <activity type="home" x="767322.354208476" y="5763012.2018754" end_time="04:14:00" />
      <leg mode="car" />
      <activity type="work" x="770419.298108957" y="5738055.52018284" end_time="16:08:00" />
      <leg mode="car" />
      <activity type="shops" x="759292.097333829" y="5730011.64553765" end_time="19:20:00" />
      <leg mode="car" />
      <activity type="home" x="767322.354208476" y="5763012.2018754" end_time="21:48:00" />
      <leg mode="car" />
      <activity type="work" x="759288.943076066" y="5730261.77284466" end_time="23:59:00" />
      <leg mode="car" />
      <activity type="home" x="767322.354208476" y="5763012.2018754" />
    </plan>
  </person>

  

 <person  id= "12" >
    <attributes>
      <attribute name="BDIAgentType" class="java.lang.String" >io.github.agentsoz.ees.agents.bushfire.Resident</attribute>
      <attribute name="HasDependentsAtLocation" class="java.lang.String" ></attribute>
      <attribute name="InitialResponseThreshold" class="java.lang.Double" >0.6</attribute>
      <attribute name="FinalResponseThreshold"   class="java.lang.Double" >0.9</attribute>
      <attribute name="ProbHomeAfterDependents"   class="java.lang.Double" >0</attribute>
      <attribute name="ProbHomeBeforeLeaving"   class="java.lang.Double" >1</attribute>
      <attribute name="EvacLocationPreference" class="java.lang.String">Anglesea Hotel,778370.129974752,5744461.62446548</attribute>
      <attribute name="InvacLocationPreference" class="java.lang.String">,788231.827686886,5750808.0608502</attribute>
    </attributes>
    <plan selected="yes">
      <activity type="home" x="788264.716112859" y="5750697.07794203" end_time="04:42:00" />
      <leg mode="car" />
      <activity type="work" x="790187.560680578" y="5754633.2955824" end_time="12:38:00" />
      <leg mode="car" />
      <activity type="shops" x="790475.985572195" y="5752082.83157055" end_time="15:47:00" />
      <leg mode="car" />
      <activity type="home" x="788264.716112859" y="5750697.07794203" end_time="17:59:00" />
      <leg mode="car" />
      <activity type="work" x="790097.91749317" y="5754855.97938242" end_time="20:27:00" />
      <leg mode="car" />
      <activity type="home" x="788264.716112859" y="5750697.07794203" />
    </plan>
  </person>

  

 <person  id= "13" >
    <attributes>
      <attribute name="BDIAgentType" class="java.lang.String" >io.github.agentsoz.ees.agents.bushfire.Resident</attribute>
      <attribute name="HasDependentsAtLocation" class="java.lang.String" ></attribute>
      <attribute name="InitialResponseThreshold" class="java.lang.Double" >0.8</attribute>
      <attribute name="FinalResponseThreshold"   class="java.lang.Double" >0.8</attribute>
      <attribute name="ProbHomeAfterDependents"   class="java.lang.Double" >0</attribute>
      <attribute name="ProbHomeBeforeLeaving"   class="java.lang.Double" >0</attribute>
      <attribute name="EvacLocationPreference" class="java.lang.String">,791477.824726652,5753417.74149688</attribute>
      <attribute name="InvacLocationPreference" class="java.lang.String">Lorne 3,760191.005485551,5731840.56391771</attribute>
    </attributes>
    <plan selected="yes">
      <activity type="home" x="759498.320215361" y="5731398.30094042" end_time="10:58:00" />
      <leg mode="car" />
      <activity type="work" x="779114.215872925" y="5744467.30459213" end_time="15:22:00" />
      <leg mode="car" />
      <activity type="beach" x="790775.326327373" y="5751338.57918683" end_time="17:21:00" />
      <leg mode="car" />
      <activity type="shops" x="778175.520327603" y="5744153.76169213" end_time="19:14:00" />
      <leg mode="car" />
      <activity type="home" x="759498.320215361" y="5731398.30094042" end_time="20:14:00" />
      <leg mode="car" />
      <activity type="work" x="779123.746720537" y="5744509.54458425" end_time="23:59:00" />
      <leg mode="car" />
      <activity type="home" x="759498.320215361" y="5731398.30094042" />
    </plan>
  </person>

  

 <person  id= "14" >
    <attributes>
      <attribute name="BDIAgentType" class="java.lang.String" >io.github.agentsoz.ees.agents.bushfire.Resident</attribute>
      <attribute name="HasDependentsAtLocation" class="java.lang.String" ></attribute>
      <attribute name="InitialResponseThreshold" class="java.lang.Double" >0.7</attribute>
      <attribute name="FinalResponseThreshold"   class="java.lang.Double" >0.9</attribute>
      <attribute name="ProbHomeAfterDependents"   class="java.lang.Double" >0</attribute>
      <attribute name="ProbHomeBeforeLeaving"   class="java.lang.Double" >1</attribute>
      <attribute name="EvacLocationPreference" class="java.lang.String">,725946.634709856,5753152.68589706</attribute>
      <attribute name="InvacLocationPreference" class="java.lang.String">Anglesea 10,776770.097154007,5742177.17743806</attribute>
    </attributes>
    <plan selected="yes">
      <activity type="home" x="776834.244380115" y="5742148.38230897" end_time="09:40:00" />
      <leg mode="car" />
      <activity type="work" x="759304.083764353" y="5730247.25466383" end_time="20:17:00" />
      <leg mode="car" />
      <activity type="home" x="776834.244380115" y="5742148.38230897" />
    </plan>
  </person>

  

 <person  id= "15" >
    <attributes>
      <attribute name="BDIAgentType" class="java.lang.String" >io.github.agentsoz.ees.agents.bushfire.Resident</attribute>
      <attribute name="HasDependentsAtLocation" class="java.lang.String" >771947.723811619,5739138.93026554</attribute>
      <attribute name="InitialResponseThreshold" class="java.lang.Double" >0.2</attribute>
      <attribute name="FinalResponseThreshold"   class="java.lang.Double" >0.3</attribute>
      <attribute name="ProbHomeAfterDependents"   class="java.lang.Double" >0</attribute>
      <attribute name="ProbHomeBeforeLeaving"   class="java.lang.Double" >0</attribute>
      <attribute name="EvacLocationPreference" class="java.lang.String">,790894.719887596,5753891.31030722</attribute>
      <attribute name="InvacLocationPreference" class="java.lang.String">Aireys Pub,770925.250436505,5738417.25117341</attribute>
    </attributes>
    <plan selected="yes">
      <activity type="home" x="771965.850858126" y="5739134.36819663" end_time="00:01:00" />
      <leg mode="car" />
      <activity type="work" x="778951.134301224" y="5744584.00662151" end_time="05:26:00" />
      <leg mode="car" />
      <activity type="home" x="771965.850858126" y="5739134.36819663" end_time="11:50:00" />
      <leg mode="car" />
      <activity type="work" x="779004.534492369" y="5744505.30999418" end_time="14:37:00" />
      <leg mode="car" />
      <activity type="beach" x="778614.794764519" y="5743470.87325903" end_time="17:59:00" />
      <leg mode="car" />
      <activity type="shops" x="770386.166527788" y="5738024.7335014" end_time="21:14:00" />
      <leg mode="car" />
      <activity type="other" x="778707.911695857" y="5745384.49367177" end_time="23:08:00" />
      <leg mode="car" />
      <activity type="home" x="771965.850858126" y="5739134.36819663" />
    </plan>
  </person>

  

 <person  id= "16" >
    <attributes>
      <attribute name="BDIAgentType" class="java.lang.String" >io.github.agentsoz.ees.agents.bushfire.Resident</attribute>
      <attribute name="HasDependentsAtLocation" class="java.lang.String" ></attribute>
      <attribute name="InitialResponseThreshold" class="java.lang.Double" >0.7</attribute>
      <attribute name="FinalResponseThreshold"   class="java.lang.Double" >0.8</attribute>
      <attribute name="ProbHomeAfterDependents"   class="java.lang.Double" >0</attribute>
      <attribute name="ProbHomeBeforeLeaving"   class="java.lang.Double" >1</attribute>
      <attribute name="EvacLocationPreference" class="java.lang.String">,725946.634709856,5753152.68589706</attribute>
      <attribute name="InvacLocationPreference" class="java.lang.String">,789242.201896266,5751982.74459978</attribute>
    </attributes>
    <plan selected="yes">
      <activity type="home" x="788774.043911175" y="5752013.22553343" end_time="08:06:00" />
      <leg mode="car" />
      <activity type="beach" x="790040.719763306" y="5750947.02859008" end_time="10:19:00" />
      <leg mode="car" />
      <activity type="other" x="778707.911695857" y="5745384.49367177" end_time="12:35:00" />
      <leg mode="car" />
      <activity type="work" x="778951.134301224" y="5744584.00662151" end_time="16:13:00" />
      <leg mode="car" />
      <activity type="home" x="788774.043911175" y="5752013.22553343" end_time="21:45:00" />
      <leg mode="car" />
      <activity type="shops" x="778226.860291899" y="5743897.65609901" end_time="23:19:00" />
      <leg mode="car" />
      <activity type="home" x="788774.043911175" y="5752013.22553343" />
    </plan>
  </person>

  

 <person  id= "17" >
    <attributes>
      <attribute name="BDIAgentType" class="java.lang.String" >io.github.agentsoz.ees.agents.bushfire.Resident</attribute>
      <attribute name="HasDependentsAtLocation" class="java.lang.String" ></attribute>
      <attribute name="InitialResponseThreshold" class="java.lang.Double" >0.4</attribute>
      <attribute name="FinalResponseThreshold"   class="java.lang.Double" >0.5</attribute>
      <attribute name="ProbHomeAfterDependents"   class="java.lang.Double" >0</attribute>
      <attribute name="ProbHomeBeforeLeaving"   class="java.lang.Double" >0</attribute>
      <attribute name="EvacLocationPreference" class="java.lang.String">,790894.719887596,5753891.31030722</attribute>
      <attribute name="InvacLocationPreference" class="java.lang.String">NSP,770423.143226585,5738052.43434643</attribute>
    </attributes>
    <plan selected="yes">
      <activity type="home" x="771709.077369113" y="5739079.60983757" end_time="09:23:00" />
      <leg mode="car" />
      <activity type="shops" x="771136.11027124" y="5738738.72647331" end_time="10:52:00" />
      <leg mode="car" />
      <activity type="beach" x="791120.803641559" y="5752820.35296198" end_time="12:03:00" />
      <leg mode="car" />
      <activity type="shops" x="790667.610337629" y="5752104.38723387" end_time="15:19:00" />
      <leg mode="car" />
      <activity type="beach" x="778247.725118489" y="5743352.11543371" end_time="16:38:00" />
      <leg mode="car" />
      <activity type="shops" x="770368.071965072" y="5738020.07004043" end_time="19:38:00" />
      <leg mode="car" />
      <activity type="home" x="771709.077369113" y="5739079.60983757" />
    </plan>
  </person>

  

 <person  id= "18" >
    <attributes>