<?xml version="1.0" encoding="utf-8"?>
  <!DOCTYPE population SYSTEM "http://www.matsim.org/files/dtd/population_v6.dtd">
  <population>
  <!-- ====================================================================== -->

 <person id= "0" >
    <attributes>
      <attribute name="BDIAgentType" class="java.lang.String" >io.github.agentsoz.ees.agents.bushfire.Resident</attribute>
      <attribute name="HasDependentsAtLocation" class="java.lang.String" >791628.876387388,5754525.99478748</attribute>
      <attribute name="InitialResponseThreshold" class="java.lang.Double" >0.3</attribute>
      <attribute name="FinalResponseThreshold"   class="java.lang.Double" >0.6</attribute>
      <attribute name="WillGoHomeAfterVisitingDependents" class="java.lang.Boolean" >true</attribute>
      <attribute name="WillGoHomeBeforeLeaving" class="java.lang.Boolean" >false</attribute>
      <attribute name="EvacLocationPreference" class="java.lang.String">,743345.54165134,5752749.80696866</attribute>
      <attribute name="InvacLocationPreference" class="java.lang.String">,792241.980747176,5754059.19193522</attribute>
    </attributes>
    <plan selected="yes">
      <activity type="home" x="791639.739166446" y="5754522.09892791" end_time="00:01:00" />
      <leg mode="car" />
      <activity type="other" x="789777.66185784" y="5753252.7750329" end_time="02:02:00" />
      <leg mode="car" />
      <activity type="home" x="791639.739166446" y="5754522.09892791" end_time="09:56:00" />
      <leg mode="car" />
      <activity type="work" x="789945.260881251" y="5754668.09878902" end_time="20:39:00" />
      <leg mode="car" />
      <activity type="home" x="791639.739166446" y="5754522.09892791" />
    </plan>
  </person>

  

 <person id= "1" >
    <attributes>
      <attribute name="BDIAgentType" class="java.lang.String" >io.github.agentsoz.ees.agents.bushfire.Resident</attribute>
      <attribute name="HasDependentsAtLocation" class="java.lang.String" ></attribute>
      <attribute name="InitialResponseThreshold" class="java.lang.Double" >0.9</attribute>
      <attribute name="FinalResponseThreshold"   class="java.lang.Double" >0.9</attribute>
      <attribute name="WillGoHomeAfterVisitingDependents" class="java.lang.Boolean" >false</attribute>
      <attribute name="WillGoHomeBeforeLeaving" class="java.lang.Boolean" >false</attribute>
      <attribute name="EvacLocationPreference" class="java.lang.String">,725946.634709856,5753152.68589706</attribute>
      <attribute name="InvacLocationPreference" class="java.lang.String">Fairhaven 2,769193.175455242,5738198.04129434</attribute>
    </attributes>
    <plan selected="yes">
      <activity type="home" x="771687.856453218" y="5738865.85725308" end_time="08:50:00" />
      <leg mode="car" />
      <activity type="beach" x="778247.725118489" y="5743352.11543371" end_time="11:46:00" />
      <leg mode="car" />
      <activity type="home" x="771687.856453218" y="5738865.85725308" end_time="13:15:00" />
      <leg mode="car" />
      <activity type="work" x="770422.86671332" y="5738055.53444599" end_time="16:11:00" />
      <leg mode="car" />
      <activity type="home" x="771687.856453218" y="5738865.85725308" end_time="21:26:00" />
      <leg mode="car" />
      <activity type="work" x="770419.298108957" y="5738055.52018284" end_time="23:59:00" />
      <leg mode="car" />
      <activity type="home" x="771687.856453218" y="5738865.85725308" />
    </plan>
  </person>

  

 <person id= "2" >
    <attributes>
      <attribute name="BDIAgentType" class="java.lang.String" >io.github.agentsoz.ees.agents.bushfire.Resident</attribute>
      <attribute name="HasDependentsAtLocation" class="java.lang.String" ></attribute>
      <attribute name="InitialResponseThreshold" class="java.lang.Double" >0.9</attribute>
      <attribute name="FinalResponseThreshold"   class="java.lang.Double" >0.9</attribute>
      <attribute name="WillGoHomeAfterVisitingDependents" class="java.lang.Boolean" >false</attribute>
      <attribute name="WillGoHomeBeforeLeaving" class="java.lang.Boolean" >false</attribute>
      <attribute name="EvacLocationPreference" class="java.lang.String">NSP Surf Club,759414.662987548,5729942.34603638</attribute>
      <attribute name="InvacLocationPreference" class="java.lang.String">,790894.719887596,5753891.31030722</attribute>
    </attributes>
    <plan selected="yes">
      <activity type="home" x="791047.292425114" y="5753907.69737906" end_time="08:55:00" />
      <leg mode="car" />
      <activity type="work" x="779114.215872925" y="5744467.30459213" end_time="13:13:00" />
      <leg mode="car" />
      <activity type="beach" x="790560.824945767" y="5751343.63519774" end_time="15:42:00" />
      <leg mode="car" />
      <activity type="shops" x="790613.854717185" y="5752242.61353915" end_time="16:31:00" />
      <leg mode="car" />
      <activity type="work" x="789757.541354133" y="5752612.44980283" end_time="20:36:00" />
      <leg mode="car" />
      <activity type="home" x="791047.292425114" y="5753907.69737906" />
    </plan>
  </person>

  

 <person id= "3" >
    <attributes>
      <attribute name="BDIAgentType" class="java.lang.String" >io.github.agentsoz.ees.agents.bushfire.Resident</attribute>
      <attribute name="HasDependentsAtLocation" class="java.lang.String" >759119.888749122,5729531.22346719</attribute>
      <attribute name="InitialResponseThreshold" class="java.lang.Double" >0.1</attribute>
      <attribute name="FinalResponseThreshold"   class="java.lang.Double" >0.1</attribute>
      <attribute name="WillGoHomeAfterVisitingDependents" class="java.lang.Boolean" >true</attribute>
      <attribute name="WillGoHomeBeforeLeaving" class="java.lang.Boolean" >false</attribute>
      <attribute name="EvacLocationPreference" class="java.lang.String">,768145.215009431,5778372.30932458</attribute>
      <attribute name="InvacLocationPreference" class="java.lang.String">Lorne 35,759130.671109786,5729767.13707423</attribute>
    </attributes>
    <plan selected="yes">
      <activity type="home" x="759120.722207957" y="5729523.61546836" end_time="00:01:00" />
      <leg mode="car" />
      <activity type="other" x="771396.301080196" y="5738862.70157473" end_time="03:42:00" />
      <leg mode="car" />
      <activity type="home" x="759120.722207957" y="5729523.61546836" end_time="05:09:00" />
      <leg mode="car" />
      <activity type="work" x="759298.019275781" y="5730296.78938106" end_time="08:57:00" />
      <leg mode="car" />
      <activity type="home" x="759120.722207957" y="5729523.61546836" end_time="11:11:00" />
      <leg mode="car" />
      <activity type="beach" x="778247.725118489" y="5743352.11543371" end_time="14:03:00" />
      <leg mode="car" />
      <activity type="shops" x="778190.084385339" y="5744106.22590521" end_time="19:46:00" />
      <leg mode="car" />
      <activity type="home" x="759120.722207957" y="5729523.61546836" />
    </plan>
  </person>

  

 <person id= "4" >
    <attributes>
      <attribute name="BDIAgentType" class="java.lang.String" >io.github.agentsoz.ees.agents.bushfire.Resident</attribute>
      <attribute name="HasDependentsAtLocation" class="java.lang.String" ></attribute>
      <attribute name="InitialResponseThreshold" class="java.lang.Double" >0.3</attribute>
      <attribute name="FinalResponseThreshold"   class="java.lang.Double" >0.5</attribute>
      <attribute name="WillGoHomeAfterVisitingDependents" class="java.lang.Boolean" >false</attribute>
      <attribute name="WillGoHomeBeforeLeaving" class="java.lang.Boolean" >true</attribute>
      <attribute name="EvacLocationPreference" class="java.lang.String">NSP,770423.143226585,5738052.43434643</attribute>
      <attribute name="InvacLocationPreference" class="java.lang.String">,791118.102569293,5753461.09876635</attribute>
    </attributes>
    <plan selected="yes">
      <activity type="home" x="792617.41249808" y="5754000.78063616" end_time="04:44:00" />
      <leg mode="car" />
      <activity type="other" x="789848.578586559" y="5753094.78647086" end_time="07:31:00" />
      <leg mode="car" />
      <activity type="home" x="792617.41249808" y="5754000.78063616" end_time="08:22:00" />
      <leg mode="car" />
      <activity type="work" x="789949.515767737" y="5752727.32925397" end_time="20:55:00" />
      <leg mode="car" />
      <activity type="home" x="792617.41249808" y="5754000.78063616" />
    </plan>
  </person>

  

 <person id= "5" >
    <attributes>
      <attribute name="BDIAgentType" class="java.lang.String" >io.github.agentsoz.ees.agents.bushfire.Resident</attribute>
      <attribute name="HasDependentsAtLocation" class="java.lang.String" >789018.756087582,5752038.37402611</attribute>
      <attribute name="InitialResponseThreshold" class="java.lang.Double" >0.3</attribute>
      <attribute name="FinalResponseThreshold"   class="java.lang.Double" >0.4</attribute>
      <attribute name="WillGoHomeAfterVisitingDependents" class="java.lang.Boolean" >false</attribute>
      <attribute name="WillGoHomeBeforeLeaving" class="java.lang.Boolean" >false</attribute>
      <attribute name="EvacLocationPreference" class="java.lang.String">NSP,770423.143226585,5738052.43434643</attribute>
      <attribute name="InvacLocationPreference" class="java.lang.String">,789242.201896266,5751982.74459978</attribute>
    </attributes>
    <plan selected="yes">
      <activity type="home" x="789035.229318576" y="5752024.96849768" end_time="08:04:00" />
      <leg mode="car" />
      <activity type="work" x="789912.148266323" y="5752729.5057551" end_time="12:25:00" />
      <leg mode="car" />
      <activity type="shops" x="790478.066050413" y="5752065.07113524" end_time="17:53:00" />
      <leg mode="car" />
      <activity type="home" x="789035.229318576" y="5752024.96849768" end_time="21:26:00" />
      <leg mode="car" />
      <activity type="work" x="789949.515767737" y="5752727.32925397" end_time="23:59:00" />
      <leg mode="car" />
      <activity type="home" x="789035.229318576" y="5752024.96849768" />
    </plan>
  </person>

  

 <person id= "6" >
    <attributes>
      <attribute name="BDIAgentType" class="java.lang.String" >io.github.agentsoz.ees.agents.bushfire.Resident</attribute>
      <attribute name="HasDependentsAtLocation" class="java.lang.String" ></attribute>
      <attribute name="InitialResponseThreshold" class="java.lang.Double" >0.4</attribute>
      <attribute name="FinalResponseThreshold"   class="java.lang.Double" >0.4</attribute>
      <attribute name="WillGoHomeAfterVisitingDependents" class="java.lang.Boolean" >false</attribute>
      <attribute name="WillGoHomeBeforeLeaving" class="java.lang.Boolean" >true</attribute>
      <attribute name="EvacLocationPreference" class="java.lang.String">,725946.634709856,5753152.68589706</attribute>
      <attribute name="InvacLocationPreference" class="java.lang.String">,788594.725322324,5751058.74232864</attribute>
    </attributes>
    <plan selected="yes">
      <activity type="home" x="788477.15357657" y="5751209.94627874" end_time="00:01:00" />
      <leg mode="car" />
      <activity type="work" x="789622.605436139" y="5752658.19536378" end_time="05:23:00" />
      <leg mode="car" />
      <activity type="home" x="788477.15357657" y="5751209.94627874" end_time="09:39:00" />
      <leg mode="car" />
      <activity type="work" x="778980.068339046" y="5744576.673304" end_time="13:33:00" />
      <leg mode="car" />
      <activity type="other" x="789816.421674447" y="5753213.33592403" end_time="15:05:00" />
      <leg mode="car" />
      <activity type="shops" x="790651.47632163" y="5752052.52107273" end_time="17:01:00" />
      <leg mode="car" />
      <activity type="beach" x="790880.588945979" y="5752593.63347727" end_time="18:48:00" />
      <leg mode="car" />
      <activity type="home" x="788477.15357657" y="5751209.94627874" />
    </plan>
  </person>

  

 <person id= "7" >
    <attributes>
      <attribute name="BDIAgentType" class="java.lang.String" >io.github.agentsoz.ees.agents.bushfire.Resident</attribute>
      <attribute name="HasDependentsAtLocation" class="java.lang.String" ></attribute>
      <attribute name="InitialResponseThreshold" class="java.lang.Double" >0.1</attribute>
      <attribute name="FinalResponseThreshold"   class="java.lang.Double" >0.1</attribute>
      <attribute name="WillGoHomeAfterVisitingDependents" class="java.lang.Boolean" >false</attribute>
      <attribute name="WillGoHomeBeforeLeaving" class="java.lang.Boolean" >true</attribute>
      <attribute name="EvacLocationPreference" class="java.lang.String">,725946.634709856,5753152.68589706</attribute>
      <attribute name="InvacLocationPreference" class="java.lang.String">,775818.578632473,5781547.04073787</attribute>
    </attributes>
    <plan selected="yes">
      <activity type="home" x="790182.452618855" y="5753162.02429425" end_time="08:17:00" />
      <leg mode="car" />
      <activity type="shops" x="790330.833186088" y="5752142.2955515" end_time="16:13:00" />
      <leg mode="car" />
      <activity type="beach" x="790672.762749222" y="5751729.94020213" end_time="19:36:00" />
      <leg mode="car" />
      <activity type="shops" x="790251.07186009" y="5752186.88566304" end_time="23:34:00" />
      <leg mode="car" />
      <activity type="home" x="790182.452618855" y="5753162.02429425" />
    </plan>
  </person>

  

 <person id= "8" >
    <attributes>
      <attribute name="BDIAgentType" class="java.lang.String" >io.github.agentsoz.ees.agents.bushfire.Resident</attribute>
      <attribute name="HasDependentsAtLocation" class="java.lang.String" ></attribute>
      <attribute name="InitialResponseThreshold" class="java.lang.Double" >0.6</attribute>
      <attribute name="FinalResponseThreshold"   class="java.lang.Double" >0.6</attribute>
      <attribute name="WillGoHomeAfterVisitingDependents" class="java.lang.Boolean" >false</attribute>
      <attribute name="WillGoHomeBeforeLeaving" class="java.lang.Boolean" >false</attribute>
      <attribute name="EvacLocationPreference" class="java.lang.String">Point Roadknight,777605.885436768,5742005.94918103</attribute>
      <attribute name="InvacLocationPreference" class="java.lang.String">,788231.827686886,5750808.0608502</attribute>
    </attributes>
    <plan selected="yes">
      <activity type="home" x="788246.644756567" y="5750961.17447865" end_time="06:03:00" />
      <leg mode="car" />
      <activity type="shops" x="790651.724270549" y="5751945.67973033" end_time="09:04:00" />
      <leg mode="car" />
      <activity type="home" x="788246.644756567" y="5750961.17447865" end_time="13:38:00" />
      <leg mode="car" />
      <activity type="work" x="779123.746720537" y="5744509.54458425" end_time="17:28:00" />
      <leg mode="car" />
      <activity type="home" x="788246.644756567" y="5750961.17447865" />
    </plan>
  </person>

  

 <person id= "9" >
    <attributes>
      <attribute name="BDIAgentType" class="java.lang.String" >io.github.agentsoz.ees.agents.bushfire.Resident</attribute>
      <attribute name="HasDependentsAtLocation" class="java.lang.String" ></attribute>
      <attribute name="InitialResponseThreshold" class="java.lang.Double" >0.6</attribute>
      <attribute name="FinalResponseThreshold"   class="java.lang.Double" >0.9</attribute>
      <attribute name="WillGoHomeAfterVisitingDependents" class="java.lang.Boolean" >false</attribute>
      <attribute name="WillGoHomeBeforeLeaving" class="java.lang.Boolean" >false</attribute>
      <attribute name="EvacLocationPreference" class="java.lang.String">,725946.634709856,5753152.68589706</attribute>
      <attribute name="InvacLocationPreference" class="java.lang.String">Anglesea 42,777937.96068881,5744539.96315965</attribute>
    </attributes>
    <plan selected="yes">
      <activity type="home" x="778035.73127488" y="5743896.27745808" end_time="13:10:00" />
      <leg mode="car" />
      <activity type="beach" x="778247.725118489" y="5743352.11543371" end_time="16:11:00" />
      <leg mode="car" />
      <activity type="work" x="770440.66549888" y="5738068.22089847" end_time="21:32:00" />
      <leg mode="car" />
      <activity type="home" x="778035.73127488" y="5743896.27745808" />
    </plan>
  </person>

  

 <person id= "10" >
    <attributes>
      <attribute name="BDIAgentType" class="java.lang.String" >io.github.agentsoz.ees.agents.bushfire.Resident</attribute>
      <attribute name="HasDependentsAtLocation" class="java.lang.String" ></attribute>
      <attribute name="InitialResponseThreshold" class="java.lang.Double" >0.9</attribute>
      <attribute name="FinalResponseThreshold"   class="java.lang.Double" >0.9</attribute>
      <attribute name="WillGoHomeAfterVisitingDependents" class="java.lang.Boolean" >false</attribute>
      <attribute name="WillGoHomeBeforeLeaving" class="java.lang.Boolean" >false</attribute>
      <attribute name="EvacLocationPreference" class="java.lang.String">Lorne 34,759271.09371883,5729851.2967029</attribute>
      <attribute name="InvacLocationPreference" class="java.lang.String">,790515.310544487,5753801.66301497</attribute>
    </attributes>
    <plan selected="yes">
      <activity type="home" x="791232.104291876" y="5753402.03107127" end_time="08:19:00" />
      <leg mode="car" />
      <activity type="work" x="789655.200618739" y="5752812.95534859" end_time="17:56:00" />
      <leg mode="car" />
      <activity type="shops" x="790487.349779004" y="5752086.17791823" end_time="19:55:00" />
      <leg mode="car" />
      <activity type="home" x="791232.104291876" y="5753402.03107127" />
    </plan>
  </person>

  

 <person id= "11" >
    <attributes>
      <attribute name="BDIAgentType" class="java.lang.String" >io.github.agentsoz.ees.agents.bushfire.Resident</attribute>
      <attribute name="HasDependentsAtLocation" class="java.lang.String" ></attribute>
      <attribute name="InitialResponseThreshold" class="java.lang.Double" >0.2</attribute>
      <attribute name="FinalResponseThreshold"   class="java.lang.Double" >0.4</attribute>
      <attribute name="WillGoHomeAfterVisitingDependents" class="java.lang.Boolean" >false</attribute>
      <attribute name="WillGoHomeBeforeLeaving" class="java.lang.Boolean" >true</attribute>
      <attribute name="EvacLocationPreference" class="java.lang.String">,725946.634709856,5753152.68589706</attribute>
      <attribute name="InvacLocationPreference" class="java.lang.String">Aireys Inlet 5,770483.896688435,5738228.93432269</attribute>
    </attributes>
    <plan selected="yes">
      <activity type="home" x="770399.979274353" y="5738240.72525645" end_time="04:13:00" />
      <leg mode="car" />
      <activity type="work" x="770422.86671332" y="5738055.53444599" end_time="09:16:00" />
      <leg mode="car" />
      <activity type="shops" x="771136.11027124" y="5738738.72647331" end_time="11:08:00" />
      <leg mode="car" />
      <activity type="home" x="770399.979274353" y="5738240.72525645" end_time="12:33:00" />
      <leg mode="car" />
      <activity type="work" x="770419.298108957" y="5738055.52018284" end_time="16:54:00" />
      <leg mode="car" />
      <activity type="home" x="770399.979274353" y="5738240.72525645" end_time="19:50:00" />
      <leg mode="car" />
      <activity type="other" x="771396.301080196" y="5738862.70157473" end_time="20:47:00" />
      <leg mode="car" />
      <activity type="work" x="778812.892695737" y="5745392.51241282" end_time="23:59:00" />
      <leg mode="car" />
      <activity type="home" x="770399.979274353" y="5738240.72525645" />
    </plan>
  </person>

  

 <person id= "12" >
    <attributes>
      <attribute name="BDIAgentType" class="java.lang.String" >io.github.agentsoz.ees.agents.bushfire.Resident</attribute>
      <attribute name="HasDependentsAtLocation" class="java.lang.String" ></attribute>
      <attribute name="InitialResponseThreshold" class="java.lang.Double" >0.7</attribute>
      <attribute name="FinalResponseThreshold"   class="java.lang.Double" >0.9</attribute>
      <attribute name="WillGoHomeAfterVisitingDependents" class="java.lang.Boolean" >false</attribute>
      <attribute name="WillGoHomeBeforeLeaving" class="java.lang.Boolean" >true</attribute>
      <attribute name="EvacLocationPreference" class="java.lang.String">Main Beach,759621.645704915,5730564.32432918</attribute>
      <attribute name="InvacLocationPreference" class="java.lang.String">,789692.496028965,5752041.73873462</attribute>
    </attributes>
    <plan selected="yes">
      <activity type="home" x="789918.32896243" y="5752468.23203267" end_time="08:50:00" />
      <leg mode="car" />
      <activity type="beach" x="790560.824945767" y="5751343.63519774" end_time="10:17:00" />
      <leg mode="car" />
      <activity type="home" x="789918.32896243" y="5752468.23203267" end_time="13:21:00" />
      <leg mode="car" />
      <activity type="work" x="779123.746720537" y="5744509.54458425" end_time="17:30:00" />
      <leg mode="car" />
      <activity type="home" x="789918.32896243" y="5752468.23203267" end_time="19:23:00" />
      <leg mode="car" />
      <activity type="shops" x="790671.881930941" y="5752059.76378851" end_time="21:18:00" />
      <leg mode="car" />
      <activity type="work" x="789628.845592299" y="5752780.55595575" end_time="23:59:00" />
      <leg mode="car" />
      <activity type="home" x="789918.32896243" y="5752468.23203267" />
    </plan>
  </person>

  

 <person id= "13" >
    <attributes>
      <attribute name="BDIAgentType" class="java.lang.String" >io.github.agentsoz.ees.agents.bushfire.Resident</attribute>
      <attribute name="HasDependentsAtLocation" class="java.lang.String" >758721.42072828,5729895.93074569</attribute>
      <attribute name="InitialResponseThreshold" class="java.lang.Double" >0.3</attribute>
      <attribute name="FinalResponseThreshold"   class="java.lang.Double" >0.5</attribute>
      <attribute name="WillGoHomeAfterVisitingDependents" class="java.lang.Boolean" >true</attribute>
      <attribute name="WillGoHomeBeforeLeaving" class="java.lang.Boolean" >false</attribute>
      <attribute name="EvacLocationPreference" class="java.lang.String">,791477.824726652,5753417.74149688</attribute>
      <attribute name="InvacLocationPreference" class="java.lang.String">Lorne 32,758769.662198062,5729795.88152983</attribute>
    </attributes>
    <plan selected="yes">
      <activity type="home" x="758728.477598433" y="5729887.59419573" end_time="00:01:00" />
      <leg mode="car" />
      <activity type="other" x="759157.839965405" y="5730302.57810009" end_time="03:49:00" />
      <leg mode="car" />
      <activity type="home" x="758728.477598433" y="5729887.59419573" end_time="05:33:00" />
      <leg mode="car" />
      <activity type="work" x="759227.068611832" y="5730294.3296384" end_time="09:14:00" />
      <leg mode="car" />
      <activity type="beach" x="777653.935985867" y="5741894.63303192" end_time="10:57:00" />
      <leg mode="car" />
      <activity type="work" x="789622.605436139" y="5752658.19536378" end_time="15:55:00" />
      <leg mode="car" />
      <activity type="shops" x="790590.045474375" y="5751761.08697407" end_time="17:09:00" />
      <leg mode="car" />
      <activity type="home" x="758728.477598433" y="5729887.59419573" end_time="19:04:00" />
      <leg mode="car" />
      <activity type="shops" x="759292.957293393" y="5730046.69255781" end_time="21:59:00" />
      <leg mode="car" />
      <activity type="home" x="758728.477598433" y="5729887.59419573" />
    </plan>
  </person>

  

 <person id= "14" >
    <attributes>
      <attribute name="BDIAgentType" class="java.lang.String" >io.github.agentsoz.ees.agents.bushfire.Resident</attribute>
      <attribute name="HasDependentsAtLocation" class="java.lang.String" ></attribute>
      <attribute name="InitialResponseThreshold" class="java.lang.Double" >0.3</attribute>
      <attribute name="FinalResponseThreshold"   class="java.lang.Double" >0.6</attribute>
      <attribute name="WillGoHomeAfterVisitingDependents" class="java.lang.Boolean" >false</attribute>
      <attribute name="WillGoHomeBeforeLeaving" class="java.lang.Boolean" >false</attribute>
      <attribute name="EvacLocationPreference" class="java.lang.String">Lorne 21,759384.918109419,5730417.76020269</attribute>
      <attribute name="InvacLocationPreference" class="java.lang.String">,790592.002499604,5752928.59055962</attribute>
    </attributes>
    <plan selected="yes">
      <activity type="home" x="790163.644947838" y="5753060.4693971" end_time="08:47:00" />
      <leg mode="car" />
      <activity type="shops" x="790535.247593362" y="5752129.29009691" end_time="11:02:00" />
      <leg mode="car" />
      <activity type="home" x="790163.644947838" y="5753060.4693971" end_time="13:50:00" />
      <leg mode="car" />
      <activity type="work" x="789957.568124804" y="5754796.87110858" end_time="17:18:00" />
      <leg mode="car" />
      <activity type="shops" x="790046.316333767" y="5752776.92694075" end_time="18:05:00" />
      <leg mode="car" />
      <activity type="home" x="790163.644947838" y="5753060.4693971" />
    </plan>
  </person>

  

 <person id= "15" >
    <attributes>
      <attribute name="BDIAgentType" class="java.lang.String" >io.github.agentsoz.ees.agents.bushfire.Resident</attribute>
      <attribute name="HasDependentsAtLocation" class="java.lang.String" >759756.958821756,5731307.25756966</attribute>
      <attribute name="InitialResponseThreshold" class="java.lang.Double" >0.2</attribute>
      <attribute name="FinalResponseThreshold"   class="java.lang.Double" >0.6</attribute>
      <attribute name="WillGoHomeAfterVisitingDependents" class="java.lang.Boolean" >true</attribute>
      <attribute name="WillGoHomeBeforeLeaving" class="java.lang.Boolean" >false</attribute>
      <attribute name="EvacLocationPreference" class="java.lang.String">Geelong,793176.81224368,5768999.20766906</attribute>
      <attribute name="InvacLocationPreference" class="java.lang.String">Lorne 12,759469.401355739,5731080.63197747</attribute>
    </attributes>
    <plan selected="yes">
      <activity type="home" x="759774.654181614" y="5731292.43258161" end_time="08:12:00" />
      <leg mode="car" />
      <activity type="work" x="770419.298108957" y="5738055.52018284" end_time="13:02:00" />
      <leg mode="car" />
      <activity type="home" x="759774.654181614" y="5731292.43258161" end_time="14:22:00" />
      <leg mode="car" />
      <activity type="beach" x="778247.725118489" y="5743352.11543371" end_time="16:23:00" />
      <leg mode="car" />
      <activity type="work" x="779114.215872925" y="5744467.30459213" end_time="21:04:00" />
      <leg mode="car" />
      <activity type="home" x="759774.654181614" y="5731292.43258161" />
    </plan>
  </person>

  

 <person id= "16" >
    <attributes>
      <attribute name="BDIAgentType" class="java.lang.String" >io.github.agentsoz.ees.agents.bushfire.Resident</attribute>
      <attribute name="HasDependentsAtLocation" class="java.lang.String" ></attribute>
      <attribute name="InitialResponseThreshold" class="java.lang.Double" >0.9</attribute>
      <attribute name="FinalResponseThreshold"   class="java.lang.Double" >0.9</attribute>
      <attribute name="WillGoHomeAfterVisitingDependents" class="java.lang.Boolean" >false</attribute>
      <attribute name="WillGoHomeBeforeLeaving" class="java.lang.Boolean" >true</attribute>
      <attribute name="EvacLocationPreference" class="java.lang.String">,791629.529052785,5753789.46360585</attribute>
      <attribute name="InvacLocationPreference" class="java.lang.String">Lorne 14,759253.1526794,5731132.02044698</attribute>
    </attributes>
    <plan selected="yes">
      <activity type="home" x="759728.380666866" y="5731171.46902134" end_time="08:11:00" />
      <leg mode="car" />
      <activity type="work" x="759252.299771141" y="5730351.6057338" end_time="13:23:00" />
      <leg mode="car" />
      <activity type="beach" x="790560.824945767" y="5751343.63519774" end_time="15:55:00" />
      <leg mode="car" />
      <activity type="work" x="789998.973612973" y="5754658.31925142" end_time="18:22:00" />
      <leg mode="car" />
      <activity type="home" x="759728.380666866" y="5731171.46902134" />
    </plan>
  </person>

  

 <person id= "17" >
    <attributes>
      <attribute name="BDIAgentType" class="java.lang.String" >io.github.agentsoz.ees.agents.bushfire.Resident</attribute>
      <attribute name="HasDependentsAtLocation" class="java.lang.String" ></attribute>
      <attribute name="InitialResponseThreshold" class="java.lang.Double" >0.3</attribute>
      <attribute name="FinalResponseThreshold"   class="java.lang.Double" >0.9</attribute>
      <attribute name="WillGoHomeAfterVisitingDependents" class="java.lang.Boolean" >false</attribute>
      <attribute name="WillGoHomeBeforeLeaving" class="java.lang.Boolean" >true</attribute>
      <attribute name="EvacLocationPreference" class="java.lang.String">,790375.415976107,5752132.444752</attribute>
      <attribute name="InvacLocationPreference" class="java.lang.String">Anglesea 42,777937.96068881,5744539.96315965</attribute>
    </attributes>
    <plan selected="yes">
      <activity type="home" x="777787.206382597" y="5744635.15738894" end_time="00:01:00" />
      <leg mode="car" />
      <activity type="other" x="778707.911695857" y="5745384.49367177" end_time="04:44:00" />
      <leg mode="car" />
      <activity type="home" x="777787.206382597" y="5744635.15738894" end_time="08:21:00" />
      <leg mode="car" />
      <activity type="work" x="778980.068339046" y="5744576.673304" end_time="21:03:00" />
      <leg mode="car" />
      <activity type="home" x="777787.206382597" y="5744635.15738894" />
    </plan>
  </person>

  

 <person id= "18" >
    <attributes>
      <attribute name="BDIAgentType" class="java.lang.String" >io.github.agentsoz.ees.agents.bushfire.Resident</attribute>