<?xml version="1.0" encoding="utf-8"?>
  <!DOCTYPE population SYSTEM "http://www.matsim.org/files/dtd/population_v6.dtd">
  <population>
  <!-- ====================================================================== -->
  <person id= "0" >
    <attributes>
      <attribute name="BDIAgentType" class="java.lang.String" >io.github.agentsoz.ees.agents.Resident</attribute>
    </attributes>
    <plan selected="yes">
      <activity type="home" x="813090.345755291" y="5768583.12007603" end_time="08:55:00" />
      <leg mode="car" />
      <activity type="work" x="789882.427101743" y="5752623.67685823" end_time="17:05:00" />
      <leg mode="car" />
      <activity type="shops" x="790251.07186009" y="5752186.88566304" end_time="18:58:00" />
      <leg mode="car" />
      <activity type="home" x="813090.345755291" y="5768583.12007603" />
    </plan>
  </person>
  
  <person id= "1" >
    <attributes>
      <attribute name="BDIAgentType" class="java.lang.String" >io.github.agentsoz.ees.agents.Resident</attribute>
    </attributes>
    <plan selected="yes">
      <activity type="home" x="793556.545483474" y="5771720.35752349" end_time="13:29:00" />
      <leg mode="car" />
      <activity type="work" x="789711.608237217" y="5752825.53879836" end_time="17:34:00" />
      <leg mode="car" />
      <activity type="shops" x="790018.052700503" y="5752587.65940709" end_time="21:14:00" />
      <leg mode="car" />
      <activity type="home" x="793556.545483474" y="5771720.35752349" />
    </plan>
  </person>
  
  <person id= "2" >
    <attributes>
      <attribute name="BDIAgentType" class="java.lang.String" >io.github.agentsoz.ees.agents.Resident</attribute>
    </attributes>
    <plan selected="yes">
      <activity type="home" x="792895.314607807" y="5772668.20536883" end_time="03:28:00" />
      <leg mode="car" />
      <activity type="other" x="789861.480645674" y="5753138.57302227" end_time="04:42:00" />
      <leg mode="car" />
      <activity type="home" x="792895.314607807" y="5772668.20536883" end_time="11:15:00" />
      <leg mode="car" />
      <activity type="work" x="789898.117419692" y="5754671.11009119" end_time="14:10:00" />
      <leg mode="car" />
      <activity type="shops" x="790751.928215878" y="5752148.24302821" end_time="17:53:00" />
      <leg mode="car" />
      <activity type="home" x="792895.314607807" y="5772668.20536883" end_time="19:07:00" />
      <leg mode="car" />
      <activity type="shops" x="790330.833186088" y="5752142.2955515" end_time="21:29:00" />
      <leg mode="car" />
      <activity type="home" x="792895.314607807" y="5772668.20536883" />
    </plan>
  </person>
  
  <person id= "3" >
    <attributes>
      <attribute name="BDIAgentType" class="java.lang.String" >io.github.agentsoz.ees.agents.Resident</attribute>
    </attributes>
    <plan selected="yes">
      <activity type="home" x="794947.027005387" y="5770367.18931238" end_time="00:01:00" />
      <leg mode="car" />
      <activity type="other" x="789777.66185784" y="5753252.7750329" end_time="05:37:00" />
      <leg mode="car" />
      <activity type="home" x="794947.027005387" y="5770367.18931238" end_time="08:09:00" />
      <leg mode="car" />
      <activity type="work" x="789836.74134439" y="5752817.95116649" end_time="12:52:00" />
      <leg mode="car" />
      <activity type="home" x="794947.027005387" y="5770367.18931238" end_time="15:23:00" />
      <leg mode="car" />
      <activity type="beach" x="790813.932219314" y="5752646.56536696" end_time="16:14:00" />
      <leg mode="car" />
      <activity type="work" x="789749.78826683" y="5752805.09302708" end_time="21:53:00" />
      <leg mode="car" />
      <activity type="home" x="794947.027005387" y="5770367.18931238" />
    </plan>
  </person>
  
  <person id= "4" >
    <attributes>
      <attribute name="BDIAgentType" class="java.lang.String" >io.github.agentsoz.ees.agents.Resident</attribute>
    </attributes>
    <plan selected="yes">
      <activity type="home" x="758806.331500042" y="5730527.22581707" end_time="03:30:00" />
      <leg mode="car" />
      <activity type="other" x="759157.839965405" y="5730302.57810009" end_time="04:28:00" />
      <leg mode="car" />
      <activity type="home" x="758806.331500042" y="5730527.22581707" end_time="09:59:00" />
      <leg mode="car" />
      <activity type="work" x="759231.174605321" y="5730284.08328322" end_time="12:08:00" />
      <leg mode="car" />
      <activity type="other" x="759157.839965405" y="5730302.57810009" end_time="15:16:00" />
      <leg mode="car" />
      <activity type="beach" x="790568.951774962" y="5751325.2355685" end_time="16:02:00" />
      <leg mode="car" />
      <activity type="home" x="758806.331500042" y="5730527.22581707" />
    </plan>
  </person>
  
  <person id= "5" >
    <attributes>
      <attribute name="BDIAgentType" class="java.lang.String" >io.github.agentsoz.ees.agents.Resident</attribute>
    </attributes>
    <plan selected="yes">
      <activity type="home" x="801371.418609169" y="5786788.05766162" end_time="08:38:00" />
      <leg mode="car" />
      <activity type="shops" x="790671.881930941" y="5752059.76378851" end_time="11:22:00" />
      <leg mode="car" />
      <activity type="work" x="789737.872727453" y="5752616.12824371" end_time="14:46:00" />
      <leg mode="car" />
      <activity type="shops" x="790590.045474375" y="5751761.08697407" end_time="20:25:00" />
      <leg mode="car" />
      <activity type="home" x="801371.418609169" y="5786788.05766162" />
    </plan>
  </person>
  
  <person id= "6" >
    <attributes>
      <attribute name="BDIAgentType" class="java.lang.String" >io.github.agentsoz.ees.agents.Resident</attribute>
    </attributes>
    <plan selected="yes">
      <activity type="home" x="791287.596454442" y="5776533.18485955" end_time="09:19:00" />
      <leg mode="car" />
      <activity type="work" x="789843.273387893" y="5754750.85158653" end_time="20:32:00" />
      <leg mode="car" />
      <activity type="home" x="791287.596454442" y="5776533.18485955" />
    </plan>
  </person>
  
  <person id= "7" >
    <attributes>
      <attribute name="BDIAgentType" class="java.lang.String" >io.github.agentsoz.ees.agents.Resident</attribute>
    </attributes>
    <plan selected="yes">
      <activity type="home" x="778343.633294817" y="5794616.12753453" end_time="09:13:00" />
      <leg mode="car" />
      <activity type="beach" x="790560.824945767" y="5751343.63519774" end_time="10:58:00" />
      <leg mode="car" />
      <activity type="home" x="778343.633294817" y="5794616.12753453" end_time="13:36:00" />
      <leg mode="car" />
      <activity type="work" x="789711.608237217" y="5752825.53879836" end_time="16:16:00" />
      <leg mode="car" />
      <activity type="shops" x="770304.616107721" y="5738003.41901043" end_time="20:52:00" />
      <leg mode="car" />
      <activity type="home" x="778343.633294817" y="5794616.12753453" end_time="23:45:00" />
      <leg mode="car" />
      <activity type="other" x="771396.301080196" y="5738862.70157473" end_time="23:59:00" />
      <leg mode="car" />
      <activity type="home" x="778343.633294817" y="5794616.12753453" />
    </plan>
  </person>
  
  <person id= "8" >
    <attributes>
      <attribute name="BDIAgentType" class="java.lang.String" >io.github.agentsoz.ees.agents.Resident</attribute>
    </attributes>
    <plan selected="yes">
      <activity type="home" x="731933.538521272" y="5706882.46941336" end_time="07:37:00" />
      <leg mode="car" />
      <activity type="work" x="789882.427101743" y="5752623.67685823" end_time="11:38:00" />
      <leg mode="car" />
      <activity type="other" x="789861.480645674" y="5753138.57302227" end_time="13:14:00" />
      <leg mode="car" />
      <activity type="beach" x="790672.762749222" y="5751729.94020213" end_time="17:32:00" />
      <leg mode="car" />
      <activity type="other" x="759157.839965405" y="5730302.57810009" end_time="19:49:00" />
      <leg mode="car" />
      <activity type="shops" x="759299.781695201" y="5729901.27980373" end_time="20:08:00" />
      <leg mode="car" />
      <activity type="home" x="731933.538521272" y="5706882.46941336" />
    </plan>
  </person>
  
  <person id= "9" >
    <attributes>
      <attribute name="BDIAgentType" class="java.lang.String" >io.github.agentsoz.ees.agents.Resident</attribute>
    </attributes>
    <plan selected="yes">
      <activity type="home" x="793566.062896614" y="5773790.06314373" end_time="08:56:00" />
      <leg mode="car" />
      <activity type="beach" x="790568.951774962" y="5751325.2355685" end_time="11:22:00" />
      <leg mode="car" />
      <activity type="home" x="793566.062896614" y="5773790.06314373" end_time="13:33:00" />
      <leg mode="car" />
      <activity type="work" x="789977.656539064" y="5752742.82728764" end_time="21:06:00" />
      <leg mode="car" />
      <activity type="home" x="793566.062896614" y="5773790.06314373" />
    </plan>
  </person>
  
  <person id= "10" >
    <attributes>
      <attribute name="BDIAgentType" class="java.lang.String" >io.github.agentsoz.ees.agents.Resident</attribute>
    </attributes>
    <plan selected="yes">
      <activity type="home" x="793067.562064031" y="5766587.49038721" end_time="06:12:00" />
      <leg mode="car" />
      <activity type="other" x="789816.421674447" y="5753213.33592403" end_time="08:03:00" />
      <leg mode="car" />
      <activity type="home" x="793067.562064031" y="5766587.49038721" end_time="14:46:00" />
      <leg mode="car" />
      <activity type="shops" x="790330.833186088" y="5752142.2955515" end_time="17:19:00" />
      <leg mode="car" />
      <activity type="work" x="789939.210052488" y="5754610.49874943" end_time="23:59:00" />
      <leg mode="car" />
      <activity type="home" x="793067.562064031" y="5766587.49038721" />
    </plan>
  </person>
  
  <person id= "11" >
    <attributes>
      <attribute name="BDIAgentType" class="java.lang.String" >io.github.agentsoz.ees.agents.Resident</attribute>
    </attributes>
    <plan selected="yes">
      <activity type="home" x="813664.09246855" y="5770635.34213781" end_time="11:33:00" />
      <leg mode="car" />
      <activity type="beach" x="790560.824945767" y="5751343.63519774" end_time="13:17:00" />
      <leg mode="car" />
      <activity type="work" x="790117.90034352" y="5754764.55944767" end_time="17:18:00" />
      <leg mode="car" />
      <activity type="shops" x="790516.649681106" y="5752084.464664" end_time="20:44:00" />
      <leg mode="car" />
      <activity type="home" x="813664.09246855" y="5770635.34213781" />
    </plan>
  </person>
  
  <person id= "12" >
    <attributes>
      <attribute name="BDIAgentType" class="java.lang.String" >io.github.agentsoz.ees.agents.Resident</attribute>
    </attributes>
    <plan selected="yes">
      <activity type="home" x="792866.207040859" y="5777804.18593579" end_time="05:45:00" />
      <leg mode="car" />
      <activity type="other" x="789861.480645674" y="5753138.57302227" end_time="07:33:00" />
      <leg mode="car" />
      <activity type="home" x="792866.207040859" y="5777804.18593579" end_time="11:14:00" />
      <leg mode="car" />
      <activity type="work" x="789957.998128903" y="5752764.24015916" end_time="14:09:00" />
      <leg mode="car" />
      <activity type="beach" x="790560.824945767" y="5751343.63519774" end_time="17:52:00" />
      <leg mode="car" />
      <activity type="home" x="792866.207040859" y="5777804.18593579" end_time="19:29:00" />
      <leg mode="car" />
      <activity type="shops" x="790456.94592737" y="5752061.92716746" end_time="20:03:00" />
      <leg mode="car" />
      <activity type="home" x="792866.207040859" y="5777804.18593579" />
    </plan>
  </person>
  
  <person id= "13" >
    <attributes>
      <attribute name="BDIAgentType" class="java.lang.String" >io.github.agentsoz.ees.agents.Resident</attribute>
    </attributes>
    <plan selected="yes">
      <activity type="home" x="809317.575646252" y="5760008.41196751" end_time="05:56:00" />
      <leg mode="car" />
      <activity type="work" x="789711.608237217" y="5752825.53879836" end_time="08:43:00" />
      <leg mode="car" />
      <activity type="home" x="809317.575646252" y="5760008.41196751" end_time="12:05:00" />
      <leg mode="car" />
      <activity type="shops" x="790251.07186009" y="5752186.88566304" end_time="14:07:00" />
      <leg mode="car" />
      <activity type="other" x="789848.578586559" y="5753094.78647086" end_time="17:51:00" />
      <leg mode="car" />
      <activity type="work" x="789893.146310598" y="5752748.18737826" end_time="21:03:00" />
      <leg mode="car" />
      <activity type="home" x="809317.575646252" y="5760008.41196751" />
    </plan>
  </person>
  
  <person id= "14" >
    <attributes>
      <attribute name="BDIAgentType" class="java.lang.String" >io.github.agentsoz.ees.agents.Resident</attribute>
    </attributes>
    <plan selected="yes">
      <activity type="home" x="789543.752258828" y="5752942.71464518" end_time="09:03:00" />
      <leg mode="car" />
      <activity type="work" x="789836.74134439" y="5752817.95116649" end_time="21:37:00" />
      <leg mode="car" />
      <activity type="home" x="789543.752258828" y="5752942.71464518" />
    </plan>
  </person>
  
  <person id= "15" >
    <attributes>
      <attribute name="BDIAgentType" class="java.lang.String" >io.github.agentsoz.ees.agents.Resident</attribute>
    </attributes>
    <plan selected="yes">
      <activity type="home" x="793042.613858215" y="5775473.116725" end_time="09:34:00" />
      <leg mode="car" />
      <activity type="work" x="789628.845592299" y="5752780.55595575" end_time="21:29:00" />
      <leg mode="car" />
      <activity type="home" x="793042.613858215" y="5775473.116725" />
    </plan>
  </person>
  
  <person id= "16" >
    <attributes>
      <attribute name="BDIAgentType" class="java.lang.String" >io.github.agentsoz.ees.agents.Resident</attribute>
    </attributes>
    <plan selected="yes">
      <activity type="home" x="813804.353760126" y="5771689.81482309" end_time="05:09:00" />
      <leg mode="car" />
      <activity type="other" x="789861.480645674" y="5753138.57302227" end_time="07:44:00" />
      <leg mode="car" />
      <activity type="home" x="813804.353760126" y="5771689.81482309" end_time="10:37:00" />
      <leg mode="car" />
      <activity type="work" x="790085.311708237" y="5754786.66463345" end_time="14:59:00" />
      <leg mode="car" />
      <activity type="shops" x="790449.480019928" y="5752149.45428441" end_time="18:33:00" />
      <leg mode="car" />
      <activity type="home" x="813804.353760126" y="5771689.81482309" />
    </plan>
  </person>
  
  <person id= "17" >
    <attributes>
      <attribute name="BDIAgentType" class="java.lang.String" >io.github.agentsoz.ees.agents.Resident</attribute>
    </attributes>
    <plan selected="yes">
      <activity type="home" x="796745.813450814" y="5771002.23967645" end_time="09:37:00" />
      <leg mode="car" />
      <activity type="work" x="789901.109338487" y="5752620.17799714" end_time="17:09:00" />
      <leg mode="car" />
      <activity type="shops" x="790251.07186009" y="5752186.88566304" end_time="19:59:00" />
      <leg mode="car" />
      <activity type="other" x="789861.480645674" y="5753138.57302227" end_time="21:18:00" />
      <leg mode="car" />
      <activity type="home" x="796745.813450814" y="5771002.23967645" />
    </plan>
  </person>
  
  <person id= "18" >
    <attributes>
      <attribute name="BDIAgentType" class="java.lang.String" >io.github.agentsoz.ees.agents.Resident</attribute>
    </attributes>
    <plan selected="yes">
      <activity type="home" x="790619.854219937" y="5765717.79555863" end_time="09:15:00" />
      <leg mode="car" />
      <activity type="work" x="789755.178079888" y="5752746.7085509" end_time="13:57:00" />
      <leg mode="car" />
      <activity type="home" x="790619.854219937" y="5765717.79555863" />
    </plan>
  </person>
  
  <person id= "19" >
    <attributes>
      <attribute name="BDIAgentType" class="java.lang.String" >io.github.agentsoz.ees.agents.Resident</attribute>
    </attributes>
    <plan selected="yes">
      <activity type="home" x="791304.648661416" y="5768469.10913003" end_time="08:03:00" />
      <leg mode="car" />
      <activity type="work" x="789835.712672256" y="5752632.4230219" end_time="17:51:00" />
      <leg mode="car" />
      <activity type="shops" x="790590.045474375" y="5751761.08697407" end_time="20:28:00" />
      <leg mode="car" />
      <activity type="other" x="789777.66185784" y="5753252.7750329" end_time="22:14:00" />
      <leg mode="car" />
      <activity type="home" x="791304.648661416" y="5768469.10913003" />
    </plan>
  </person>
  
  <person id= "20" >
    <attributes>
      <attribute name="BDIAgentType" class="java.lang.String" >io.github.agentsoz.ees.agents.Resident</attribute>
    </attributes>
    <plan selected="yes">
      <activity type="home" x="793828.346602445" y="5773118.67533615" end_time="00:01:00" />
      <leg mode="car" />
      <activity type="work" x="789850.467555182" y="5752629.66111631" end_time="04:25:00" />
      <leg mode="car" />
      <activity type="home" x="793828.346602445" y="5773118.67533615" end_time="11:04:00" />
      <leg mode="car" />
      <activity type="shops" x="778219.968401028" y="5743921.88455228" end_time="13:29:00" />
      <leg mode="car" />
      <activity type="work" x="790117.90034352" y="5754764.55944767" end_time="17:31:00" />
      <leg mode="car" />
      <activity type="other" x="789848.578586559" y="5753094.78647086" end_time="19:10:00" />
      <leg mode="car" />
      <activity type="home" x="793828.346602445" y="5773118.67533615" />
    </plan>
  </person>
  
  <person id= "21" >
    <attributes>
      <attribute name="BDIAgentType" class="java.lang.String" >io.github.agentsoz.ees.agents.Resident</attribute>
    </attributes>
    <plan selected="yes">
      <activity type="home" x="798887.421683482" y="5786489.60505789" end_time="00:01:00" />
      <leg mode="car" />
      <activity type="work" x="789755.178079888" y="5752746.7085509" end_time="05:36:00" />
      <leg mode="car" />
      <activity type="home" x="798887.421683482" y="5786489.60505789" end_time="09:21:00" />
      <leg mode="car" />
      <activity type="work" x="790076.107885328" y="5754736.05442655" end_time="16:51:00" />
      <leg mode="car" />
      <activity type="home" x="798887.421683482" y="5786489.60505789" />
    </plan>
  </person>
  
  <person id= "22" >
    <attributes>
      <attribute name="BDIAgentType" class="java.lang.String" >io.github.agentsoz.ees.agents.Resident</attribute>
    </attributes>
    <plan selected="yes">
      <activity type="home" x="794609.381789149" y="5772801.86455634" end_time="00:01:00" />
      <leg mode="car" />
      <activity type="other" x="789848.578586559" y="5753094.78647086" end_time="03:34:00" />
      <leg mode="car" />
      <activity type="home" x="794609.381789149" y="5772801.86455634" end_time="05:13:00" />
      <leg mode="car" />
      <activity type="other" x="789848.578586559" y="5753094.78647086" end_time="06:30:00" />
      <leg mode="car" />
      <activity type="home" x="794609.381789149" y="5772801.86455634" end_time="08:09:00" />
      <leg mode="car" />
      <activity type="work" x="779072.591434244" y="5744566.5299771" end_time="17:12:00" />
      <leg mode="car" />
      <activity type="shops" x="771136.11027124" y="5738738.72647331" end_time="19:54:00" />
      <leg mode="car" />
      <activity type="home" x="794609.381789149" y="5772801.86455634" end_time="21:36:00" />
      <leg mode="car" />
      <activity type="shops" x="778190.084385339" y="5744106.22590521" end_time="22:54:00" />
      <leg mode="car" />
      <activity type="home" x="794609.381789149" y="5772801.86455634" />
    </plan>
  </person>
  
  <person id= "23" >
    <attributes>
      <attribute name="BDIAgentType" class="java.lang.String" >io.github.agentsoz.ees.agents.Resident</attribute>
    </attributes>
    <plan selected="yes">
      <activity type="home" x="789849.26655819" y="5771916.45618683" end_time="11:36:00" />
      <leg mode="car" />
      <activity type="work" x="789833.453483859" y="5754743.11617852" end_time="15:23:00" />
      <leg mode="car" />
      <activity type="home" x="789849.26655819" y="5771916.45618683" end_time="16:53:00" />
      <leg mode="car" />
      <activity type="shops" x="790651.724270549" y="5751945.67973033" end_time="19:52:00" />
      <leg mode="car" />
      <activity type="home" x="789849.26655819" y="5771916.45618683" />
    </plan>
  </person>
  
  <person id= "24" >
    <attributes>
      <attribute name="BDIAgentType" class="java.lang.String" >io.github.agentsoz.ees.agents.Resident</attribute>
    </attributes>
    <plan selected="yes">
      <activity type="home" x="816142.437967948" y="5756825.25810036" end_time="08:27:00" />
      <leg mode="car" />
      <activity type="work" x="789905.724854422" y="5752730.71021141" end_time="16:39:00" />
      <leg mode="car" />
      <activity type="shops" x="778625.507483276" y="5744460.79582655" end_time="18:01:00" />
      <leg mode="car" />
      <activity type="home" x="816142.437967948" y="5756825.25810036" />
    </plan>
  </person>
  
  <person id= "25" >
    <attributes>
      <attribute name="BDIAgentType" class="java.lang.String" >io.github.agentsoz.ees.agents.Resident</attribute>
    </attributes>
    <plan selected="yes">
      <activity type="home" x="795554.313862918" y="5781811.53679847" end_time="09:09:00" />
      <leg mode="car" />
      <activity type="work" x="789748.033182453" y="5752663.56664911" end_time="20:24:00" />
      <leg mode="car" />
      <activity type="home" x="795554.313862918" y="5781811.53679847" end_time="23:54:00" />
      <leg mode="car" />
      <activity type="other" x="789861.480645674" y="5753138.57302227" end_time="23:59:00" />
      <leg mode="car" />
      <activity type="home" x="795554.313862918" y="5781811.53679847" />
    </plan>
  </person>
  
  <person id= "26" >
    <attributes>
      <attribute name="BDIAgentType" class="java.lang.String" >io.github.agentsoz.ees.agents.Resident</attribute>
    </attributes>
    <plan selected="yes">
      <activity type="home" x="813740.228862494" y="5770798.00285959" end_time="08:32:00" />
      <leg mode="car" />
      <activity type="work" x="759260.487716657" y="5730253.05845568" end_time="17:47:00" />
      <leg mode="car" />
      <activity type="shops" x="790607.091268723" y="5752217.26031618" end_time="20:14:00" />
      <leg mode="car" />
      <activity type="home" x="813740.228862494" y="5770798.00285959" end_time="22:33:00" />
      <leg mode="car" />
      <activity type="other" x="789816.421674447" y="5753213.33592403" end_time="23:59:00" />
      <leg mode="car" />
      <activity type="home" x="813740.228862494" y="5770798.00285959" />
    </plan>
  </person>
  
  <person id= "27" >
    <attributes>
      <attribute name="BDIAgentType" class="java.lang.String" >io.github.agentsoz.ees.agents.Resident</attribute>
    </attributes>
    <plan selected="yes">
      <activity type="home" x="792331.27795967" y="5773597.47027234" end_time="03:04:00" />
      <leg mode="car" />
      <activity type="other" x="789816.421674447" y="5753213.33592403" end_time="05:59:00" />
      <leg mode="car" />
      <activity type="home" x="792331.27795967" y="5773597.47027234" end_time="08:23:00" />
      <leg mode="car" />
      <activity type="work" x="789977.656539064" y="5752742.82728764" end_time="17:38:00" />
      <leg mode="car" />
      <activity type="home" x="792331.27795967" y="5773597.47027234" />
    </plan>
  </person>
  
  <person id= "28" >
    <attributes>
      <attribute name="BDIAgentType" class="java.lang.String" >io.github.agentsoz.ees.agents.Resident</attribute>
    </attributes>
    <plan selected="yes">
      <activity type="home" x="797845.031325791" y="5759317.07937586" end_time="09:59:00" />
      <leg mode="car" />
      <activity type="work" x="789901.109338487" y="5752620.17799714" end_time="13:33:00" />
      <leg mode="car" />
      <activity type="home" x="797845.031325791" y="5759317.07937586" end_time="14:54:00" />
      <leg mode="car" />
      <activity type="beach" x="790568.951774962" y="5751325.2355685" end_time="16:55:00" />
      <leg mode="car" />
      <activity type="shops" x="790562.639401746" y="5752246.60035295" end_time="18:35:00" />
      <leg mode="car" />
      <activity type="home" x="797845.031325791" y="5759317.07937586" />
    </plan>
  </person>
  
  <person id= "29" >
    <attributes>
      <attribute name="BDIAgentType" class="java.lang.String" >io.github.agentsoz.ees.agents.Resident</attribute>
    </attributes>
    <plan selected="yes">
      <activity type="home" x="725110.637939569" y="5753551.44830097" end_time="11:27:00" />
      <leg mode="car" />
      <activity type="shops" x="770326.526265268" y="5738019.45766535" end_time="12:26:00" />
      <leg mode="car" />
      <activity type="work" x="790008.423898867" y="5754757.29520642" end_time="17:51:00" />
      <leg mode="car" />
      <activity type="home" x="725110.637939569" y="5753551.44830097" />
    </plan>
  </person>
  
  <person id= "30" >
    <attributes>
      <attribute name="BDIAgentType" class="java.lang.String" >io.github.agentsoz.ees.agents.Resident</attribute>
    </attributes>
    <plan selected="yes">
      <activity type="home" x="804474.684096856" y="5768650.07197181" end_time="12:20:00" />
      <leg mode="car" />
      <activity type="beach" x="790560.824945767" y="5751343.63519774" end_time="14:53:00" />
      <leg mode="car" />
      <activity type="shops" x="790535.247593362" y="5752129.29009691" end_time="16:44:00" />
      <leg mode="car" />
      <activity type="home" x="804474.684096856" y="5768650.07197181" end_time="18:56:00" />
      <leg mode="car" />
      <activity type="shops" x="790486.707681742" y="5752137.80045586" end_time="20:03:00" />
      <leg mode="car" />
      <activity type="home" x="804474.684096856" y="5768650.07197181" />
    </plan>
  </person>
  
  <person id= "31" >
    <attributes>
      <attribute name="BDIAgentType" class="java.lang.String" >io.github.agentsoz.ees.agents.Resident</attribute>
    </attributes>
    <plan selected="yes">
      <activity type="home" x="793327.721702812" y="5773684.16677925" end_time="05:59:00" />
      <leg mode="car" />
      <activity type="work" x="790098.291852104" y="5754819.77500703" end_time="09:13:00" />
      <leg mode="car" />
      <activity type="shops" x="790542.574054136" y="5751476.18082712" end_time="12:12:00" />
      <leg mode="car" />
      <activity type="home" x="793327.721702812" y="5773684.16677925" end_time="15:26:00" />
      <leg mode="car" />
      <activity type="shops" x="790573.91537662" y="5752122.01424769" end_time="18:06:00" />
      <leg mode="car" />
      <activity type="other" x="789861.480645674" y="5753138.57302227" end_time="21:20:00" />
      <leg mode="car" />
      <activity type="home" x="793327.721702812" y="5773684.16677925" />
    </plan>
  </person>
  
  <person id= "32" >
    <attributes>
      <attribute name="BDIAgentType" class="java.lang.String" >io.github.agentsoz.ees.agents.Resident</attribute>
    </attributes>
    <plan selected="yes">
      <activity type="home" x="793561.086005368" y="5779542.69434645" end_time="09:44:00" />
      <leg mode="car" />
      <activity type="work" x="789977.194750458" y="5752779.33055096" end_time="12:17:00" />
      <leg mode="car" />
      <activity type="home" x="793561.086005368" y="5779542.69434645" end_time="15:52:00" />
      <leg mode="car" />
      <activity type="shops" x="790624.043260644" y="5752119.69920225" end_time="18:41:00" />
      <leg mode="car" />
      <activity type="home" x="793561.086005368" y="5779542.69434645" />
    </plan>
  </person>
  
  <person id= "33" >
    <attributes>
      <attribute name="BDIAgentType" class="java.lang.String" >io.github.agentsoz.ees.agents.Resident</attribute>
    </attributes>
    <plan selected="yes">
      <activity type="home" x="790875.956400359" y="5753786.7901759" end_time="06:48:00" />
      <leg mode="car" />
      <activity type="shops" x="790038.953045847" y="5752737.30393136" end_time="08:58:00" />
      <leg mode="car" />
      <activity type="work" x="789748.033182453" y="5752663.56664911" end_time="21:34:00" />
      <leg mode="car" />
      <activity type="home" x="790875.956400359" y="5753786.7901759" />
    </plan>
  </person>
  
  <person id= "34" >
    <attributes>
      <attribute name="BDIAgentType" class="java.lang.String" >io.github.agentsoz.ees.agents.Resident</attribute>
    </attributes>
    <plan selected="yes">
      <activity type="home" x="728281.93982369" y="5709548.35016945" end_time="02:01:00" />
      <leg mode="car" />
      <activity type="other" x="759157.839965405" y="5730302.57810009" end_time="06:43:00" />
      <leg mode="car" />
      <activity type="home" x="728281.93982369" y="5709548.35016945" end_time="08:21:00" />
      <leg mode="car" />
      <activity type="work" x="759304.083764353" y="5730247.25466383" end_time="13:08:00" />
      <leg mode="car" />
      <activity type="beach" x="790560.824945767" y="5751343.63519774" end_time="14:11:00" />
      <leg mode="car" />
      <activity type="shops" x="759293.860382897" y="5730086.52157006" end_time="17:34:00" />
      <leg mode="car" />
      <activity type="work" x="759227.068611832" y="5730294.3296384" end_time="21:15:00" />
      <leg mode="car" />
      <activity type="home" x="728281.93982369" y="5709548.35016945" />
    </plan>
  </person>
  
  <person id= "35" >
    <attributes>
      <attribute name="BDIAgentType" class="java.lang.String" >io.github.agentsoz.ees.agents.Resident</attribute>
    </attributes>
    <plan selected="yes">
      <activity type="home" x="794718.447175993" y="5771486.23170943" end_time="08:27:00" />