<?xml version="1.0" encoding="utf-8"?>
  <!DOCTYPE population SYSTEM "http://www.matsim.org/files/dtd/population_v6.dtd">
  <population>
  <!-- ====================================================================== -->
  <person id= "0" >
    <attributes>
      <attribute name="BDIAgentType" class="java.lang.String" >io.github.agentsoz.ees.agents.Resident</attribute>
    </attributes>
    <plan selected="yes">
      <activity type="home" x="776972.085724823" y="5742340.85981845" end_time="08:35:00" />
      <leg mode="car" />
      <activity type="shops" x="778175.520327603" y="5744153.76169213" end_time="10:56:00" />
      <leg mode="car" />
      <activity type="home" x="776972.085724823" y="5742340.85981845" end_time="12:30:00" />
      <leg mode="car" />
      <activity type="work" x="778582.406265931" y="5744323.77036824" end_time="20:52:00" />
      <leg mode="car" />
      <activity type="home" x="776972.085724823" y="5742340.85981845" />
    </plan>
  </person>
  
  <person id= "1" >
    <attributes>
      <attribute name="BDIAgentType" class="java.lang.String" >io.github.agentsoz.ees.agents.Resident</attribute>
    </attributes>
    <plan selected="yes">
      <activity type="home" x="809914.844347986" y="5758822.45529641" end_time="13:40:00" />
      <leg mode="car" />
      <activity type="work" x="789711.608237217" y="5752825.53879836" end_time="16:51:00" />
      <leg mode="car" />
      <activity type="home" x="809914.844347986" y="5758822.45529641" end_time="21:04:00" />
      <leg mode="car" />
      <activity type="work" x="789977.656539064" y="5752742.82728764" end_time="23:59:00" />
      <leg mode="car" />
      <activity type="home" x="809914.844347986" y="5758822.45529641" />
    </plan>
  </person>
  
  <person id= "2" >
    <attributes>
      <attribute name="BDIAgentType" class="java.lang.String" >io.github.agentsoz.ees.agents.Resident</attribute>
    </attributes>
    <plan selected="yes">
      <activity type="home" x="793287.025497489" y="5780830.820147" end_time="08:22:00" />
      <leg mode="car" />
      <activity type="work" x="759282.247797748" y="5730319.99583973" end_time="17:55:00" />
      <leg mode="car" />
      <activity type="shops" x="790535.460409869" y="5752260.32665364" end_time="22:05:00" />
      <leg mode="car" />
      <activity type="home" x="793287.025497489" y="5780830.820147" />
    </plan>
  </person>
  
  <person id= "3" >
    <attributes>
      <attribute name="BDIAgentType" class="java.lang.String" >io.github.agentsoz.ees.agents.Resident</attribute>
    </attributes>
    <plan selected="yes">
      <activity type="home" x="792620.925181198" y="5769658.19196252" end_time="09:59:00" />
      <leg mode="car" />
      <activity type="shops" x="790568.637025022" y="5752123.00798139" end_time="10:35:00" />
      <leg mode="car" />
      <activity type="beach" x="790813.932219314" y="5752646.56536696" end_time="12:55:00" />
      <leg mode="car" />
      <activity type="shops" x="790251.07186009" y="5752186.88566304" end_time="19:33:00" />
      <leg mode="car" />
      <activity type="home" x="792620.925181198" y="5769658.19196252" />
    </plan>
  </person>
  
  <person id= "4" >
    <attributes>
      <attribute name="BDIAgentType" class="java.lang.String" >io.github.agentsoz.ees.agents.Resident</attribute>
    </attributes>
    <plan selected="yes">
      <activity type="home" x="797069.535698302" y="5770188.53390434" end_time="00:01:00" />
      <leg mode="car" />
      <activity type="other" x="789816.421674447" y="5753213.33592403" end_time="05:53:00" />
      <leg mode="car" />
      <activity type="home" x="797069.535698302" y="5770188.53390434" end_time="09:20:00" />
      <leg mode="car" />
      <activity type="work" x="790063.10030207" y="5754680.77610843" end_time="20:30:00" />
      <leg mode="car" />
      <activity type="home" x="797069.535698302" y="5770188.53390434" />
    </plan>
  </person>
  
  <person id= "5" >
    <attributes>
      <attribute name="BDIAgentType" class="java.lang.String" >io.github.agentsoz.ees.agents.Resident</attribute>
    </attributes>
    <plan selected="yes">
      <activity type="home" x="791688.480193187" y="5775182.46844499" end_time="09:27:00" />
      <leg mode="car" />
      <activity type="work" x="789957.998128903" y="5752764.24015916" end_time="12:27:00" />
      <leg mode="car" />
      <activity type="home" x="791688.480193187" y="5775182.46844499" end_time="14:15:00" />
      <leg mode="car" />
      <activity type="shops" x="790700.602352901" y="5752106.05359128" end_time="16:51:00" />
      <leg mode="car" />
      <activity type="work" x="789689.937027298" y="5752659.717908" end_time="21:40:00" />
      <leg mode="car" />
      <activity type="home" x="791688.480193187" y="5775182.46844499" />
    </plan>
  </person>
  
  <person id= "6" >
    <attributes>
      <attribute name="BDIAgentType" class="java.lang.String" >io.github.agentsoz.ees.agents.Resident</attribute>
    </attributes>
    <plan selected="yes">
      <activity type="home" x="812280.685214249" y="5770270.24125227" end_time="08:17:00" />
      <leg mode="car" />
      <activity type="work" x="789748.033182453" y="5752663.56664911" end_time="12:14:00" />
      <leg mode="car" />
      <activity type="home" x="812280.685214249" y="5770270.24125227" end_time="17:36:00" />
      <leg mode="car" />
      <activity type="shops" x="790251.07186009" y="5752186.88566304" end_time="18:46:00" />
      <leg mode="car" />
      <activity type="other" x="789816.421674447" y="5753213.33592403" end_time="20:20:00" />
      <leg mode="car" />
      <activity type="home" x="812280.685214249" y="5770270.24125227" />
    </plan>
  </person>
  
  <person id= "7" >
    <attributes>
      <attribute name="BDIAgentType" class="java.lang.String" >io.github.agentsoz.ees.agents.Resident</attribute>
    </attributes>
    <plan selected="yes">
      <activity type="home" x="768005.067354169" y="5738090.11847262" end_time="07:43:00" />
      <leg mode="car" />
      <activity type="work" x="770440.66549888" y="5738068.22089847" end_time="15:01:00" />
      <leg mode="car" />
      <activity type="home" x="768005.067354169" y="5738090.11847262" />
    </plan>
  </person>
  
  <person id= "8" >
    <attributes>
      <attribute name="BDIAgentType" class="java.lang.String" >io.github.agentsoz.ees.agents.Resident</attribute>
    </attributes>
    <plan selected="yes">
      <activity type="home" x="796436.717881169" y="5781458.07350345" end_time="10:35:00" />
      <leg mode="car" />
      <activity type="work" x="789872.47261438" y="5752811.26023417" end_time="15:25:00" />
      <leg mode="car" />
      <activity type="home" x="796436.717881169" y="5781458.07350345" end_time="16:48:00" />
      <leg mode="car" />
      <activity type="shops" x="790251.07186009" y="5752186.88566304" end_time="18:16:00" />
      <leg mode="car" />
      <activity type="home" x="796436.717881169" y="5781458.07350345" end_time="22:09:00" />
      <leg mode="car" />
      <activity type="other" x="778707.911695857" y="5745384.49367177" end_time="23:59:00" />
      <leg mode="car" />
      <activity type="home" x="796436.717881169" y="5781458.07350345" />
    </plan>
  </person>
  
  <person id= "9" >
    <attributes>
      <attribute name="BDIAgentType" class="java.lang.String" >io.github.agentsoz.ees.agents.Resident</attribute>
    </attributes>
    <plan selected="yes">
      <activity type="home" x="825069.018398731" y="5768951.88228604" end_time="09:23:00" />
      <leg mode="car" />
      <activity type="beach" x="790568.951774962" y="5751325.2355685" end_time="10:09:00" />
      <leg mode="car" />
      <activity type="home" x="825069.018398731" y="5768951.88228604" end_time="13:29:00" />
      <leg mode="car" />
      <activity type="beach" x="790560.824945767" y="5751343.63519774" end_time="15:21:00" />
      <leg mode="car" />
      <activity type="shops" x="790651.724270549" y="5751945.67973033" end_time="17:35:00" />
      <leg mode="car" />
      <activity type="other" x="789861.480645674" y="5753138.57302227" end_time="18:23:00" />
      <leg mode="car" />
      <activity type="home" x="825069.018398731" y="5768951.88228604" end_time="20:06:00" />
      <leg mode="car" />
      <activity type="work" x="789714.765002364" y="5752620.46363696" end_time="23:59:00" />
      <leg mode="car" />
      <activity type="home" x="825069.018398731" y="5768951.88228604" />
    </plan>
  </person>
  
  <person id= "10" >
    <attributes>
      <attribute name="BDIAgentType" class="java.lang.String" >io.github.agentsoz.ees.agents.Resident</attribute>
    </attributes>
    <plan selected="yes">
      <activity type="home" x="815876.049975684" y="5755920.92279764" end_time="08:41:00" />
      <leg mode="car" />
      <activity type="other" x="789861.480645674" y="5753138.57302227" end_time="11:41:00" />
      <leg mode="car" />
      <activity type="home" x="815876.049975684" y="5755920.92279764" end_time="12:47:00" />
      <leg mode="car" />
      <activity type="work" x="789711.608237217" y="5752825.53879836" end_time="17:59:00" />
      <leg mode="car" />
      <activity type="home" x="815876.049975684" y="5755920.92279764" />
    </plan>
  </person>
  
  <person id= "11" >
    <attributes>
      <attribute name="BDIAgentType" class="java.lang.String" >io.github.agentsoz.ees.agents.Resident</attribute>
    </attributes>
    <plan selected="yes">
      <activity type="home" x="769363.999981883" y="5786303.99934428" end_time="09:18:00" />
      <leg mode="car" />
      <activity type="work" x="789835.712672256" y="5752632.4230219" end_time="12:51:00" />
      <leg mode="car" />
      <activity type="beach" x="778614.794764519" y="5743470.87325903" end_time="15:45:00" />
      <leg mode="car" />
      <activity type="work" x="789711.608237217" y="5752825.53879836" end_time="18:12:00" />
      <leg mode="car" />
      <activity type="other" x="789816.421674447" y="5753213.33592403" end_time="20:10:00" />
      <leg mode="car" />
      <activity type="home" x="769363.999981883" y="5786303.99934428" />
    </plan>
  </person>
  
  <person id= "12" >
    <attributes>
      <attribute name="BDIAgentType" class="java.lang.String" >io.github.agentsoz.ees.agents.Resident</attribute>
    </attributes>
    <plan selected="yes">
      <activity type="home" x="760440.719173028" y="5732132.2649016" end_time="08:54:00" />
      <leg mode="car" />
      <activity type="work" x="759292.525850378" y="5730231.89316184" end_time="13:30:00" />
      <leg mode="car" />
      <activity type="beach" x="777653.935985867" y="5741894.63303192" end_time="15:21:00" />
      <leg mode="car" />
      <activity type="work" x="759248.272022348" y="5730234.81704829" end_time="19:37:00" />
      <leg mode="car" />
      <activity type="home" x="760440.719173028" y="5732132.2649016" />
    </plan>
  </person>
  
  <person id= "13" >
    <attributes>
      <attribute name="BDIAgentType" class="java.lang.String" >io.github.agentsoz.ees.agents.Resident</attribute>
    </attributes>
    <plan selected="yes">
      <activity type="home" x="813501.127734456" y="5771135.00281726" end_time="09:57:00" />
      <leg mode="car" />
      <activity type="work" x="789957.568124804" y="5754796.87110858" end_time="12:52:00" />
      <leg mode="car" />
      <activity type="home" x="813501.127734456" y="5771135.00281726" end_time="14:22:00" />
      <leg mode="car" />
      <activity type="shops" x="790679.653172027" y="5752102.12155741" end_time="21:42:00" />
      <leg mode="car" />
      <activity type="home" x="813501.127734456" y="5771135.00281726" end_time="23:37:00" />
      <leg mode="car" />
      <activity type="other" x="789848.578586559" y="5753094.78647086" end_time="23:59:00" />
      <leg mode="car" />
      <activity type="home" x="813501.127734456" y="5771135.00281726" />
    </plan>
  </person>
  
  <person id= "14" >
    <attributes>
      <attribute name="BDIAgentType" class="java.lang.String" >io.github.agentsoz.ees.agents.Resident</attribute>
    </attributes>
    <plan selected="yes">
      <activity type="home" x="768896.259858916" y="5785460.52724656" end_time="06:42:00" />
      <leg mode="car" />
      <activity type="shops" x="790575.04522556" y="5751642.59901226" end_time="09:42:00" />
      <leg mode="car" />
      <activity type="work" x="789988.030297441" y="5754761.00314166" end_time="13:37:00" />
      <leg mode="car" />
      <activity type="home" x="768896.259858916" y="5785460.52724656" end_time="16:24:00" />
      <leg mode="car" />
      <activity type="work" x="789641.452779212" y="5752808.26959037" end_time="21:52:00" />
      <leg mode="car" />
      <activity type="home" x="768896.259858916" y="5785460.52724656" />
    </plan>
  </person>
  
  <person id= "15" >
    <attributes>
      <attribute name="BDIAgentType" class="java.lang.String" >io.github.agentsoz.ees.agents.Resident</attribute>
    </attributes>
    <plan selected="yes">
      <activity type="home" x="793416.806584263" y="5754499.81091352" end_time="08:35:00" />
      <leg mode="car" />
      <activity type="work" x="789785.381318969" y="5752799.47887886" end_time="17:03:00" />
      <leg mode="car" />
      <activity type="shops" x="790038.953045847" y="5752737.30393136" end_time="20:10:00" />
      <leg mode="car" />
      <activity type="home" x="793416.806584263" y="5754499.81091352" />
    </plan>
  </person>
  
  <person id= "16" >
    <attributes>
      <attribute name="BDIAgentType" class="java.lang.String" >io.github.agentsoz.ees.agents.Resident</attribute>
    </attributes>
    <plan selected="yes">
      <activity type="home" x="820097.132284778" y="5775127.10056178" end_time="07:07:00" />
      <leg mode="car" />
      <activity type="shops" x="790251.07186009" y="5752186.88566304" end_time="08:39:00" />
      <leg mode="car" />
      <activity type="work" x="790529.350420148" y="5754735.50360634" end_time="21:43:00" />
      <leg mode="car" />
      <activity type="home" x="820097.132284778" y="5775127.10056178" />
    </plan>
  </person>
  
  <person id= "17" >
    <attributes>
      <attribute name="BDIAgentType" class="java.lang.String" >io.github.agentsoz.ees.agents.Resident</attribute>
    </attributes>
    <plan selected="yes">
      <activity type="home" x="760410.727385463" y="5732488.74874368" end_time="06:36:00" />
      <leg mode="car" />
      <activity type="work" x="759250.796954204" y="5730288.76591084" end_time="10:43:00" />
      <leg mode="car" />
      <activity type="home" x="760410.727385463" y="5732488.74874368" end_time="12:18:00" />
      <leg mode="car" />
      <activity type="work" x="759283.575347615" y="5730299.65040435" end_time="17:18:00" />
      <leg mode="car" />
      <activity type="home" x="760410.727385463" y="5732488.74874368" />
    </plan>
  </person>
  
  <person id= "18" >
    <attributes>
      <attribute name="BDIAgentType" class="java.lang.String" >io.github.agentsoz.ees.agents.Resident</attribute>
    </attributes>
    <plan selected="yes">
      <activity type="home" x="793157.664781035" y="5766568.1496789" end_time="09:24:00" />
      <leg mode="car" />
      <activity type="work" x="789942.961687305" y="5754630.51561038" end_time="12:15:00" />
      <leg mode="car" />
      <activity type="other" x="789816.421674447" y="5753213.33592403" end_time="14:05:00" />
      <leg mode="car" />
      <activity type="shops" x="790522.788096078" y="5752133.72234104" end_time="20:03:00" />
      <leg mode="car" />
      <activity type="home" x="793157.664781035" y="5766568.1496789" />
    </plan>
  </person>
  
  <person id= "19" >
    <attributes>
      <attribute name="BDIAgentType" class="java.lang.String" >io.github.agentsoz.ees.agents.Resident</attribute>
    </attributes>
    <plan selected="yes">
      <activity type="home" x="811997.770900808" y="5768478.44556328" end_time="04:59:00" />
      <leg mode="car" />
      <activity type="other" x="789816.421674447" y="5753213.33592403" end_time="06:50:00" />
      <leg mode="car" />
      <activity type="home" x="811997.770900808" y="5768478.44556328" end_time="11:47:00" />
      <leg mode="car" />
      <activity type="work" x="789905.524080843" y="5752584.73973692" end_time="15:32:00" />
      <leg mode="car" />
      <activity type="shops" x="790624.043260644" y="5752119.69920225" end_time="18:03:00" />
      <leg mode="car" />
      <activity type="home" x="811997.770900808" y="5768478.44556328" />
    </plan>
  </person>
  
  <person id= "20" >
    <attributes>
      <attribute name="BDIAgentType" class="java.lang.String" >io.github.agentsoz.ees.agents.Resident</attribute>
    </attributes>
    <plan selected="yes">
      <activity type="home" x="791462.873229157" y="5770310.18294603" end_time="09:54:00" />
      <leg mode="car" />
      <activity type="work" x="789977.194750458" y="5752779.33055096" end_time="21:57:00" />
      <leg mode="car" />
      <activity type="home" x="791462.873229157" y="5770310.18294603" />
    </plan>
  </person>
  
  <person id= "21" >
    <attributes>
      <attribute name="BDIAgentType" class="java.lang.String" >io.github.agentsoz.ees.agents.Resident</attribute>
    </attributes>
    <plan selected="yes">
      <activity type="home" x="796612.2377853" y="5770478.26735603" end_time="08:42:00" />
      <leg mode="car" />
      <activity type="work" x="789948.044262372" y="5752560.64138924" end_time="13:42:00" />
      <leg mode="car" />
      <activity type="shops" x="790251.07186009" y="5752186.88566304" end_time="19:16:00" />
      <leg mode="car" />
      <activity type="home" x="796612.2377853" y="5770478.26735603" />
    </plan>
  </person>
  
  <person id= "22" >
    <attributes>
      <attribute name="BDIAgentType" class="java.lang.String" >io.github.agentsoz.ees.agents.Resident</attribute>
    </attributes>
    <plan selected="yes">
      <activity type="home" x="770782.871003623" y="5738300.74449473" end_time="09:12:00" />
      <leg mode="car" />
      <activity type="work" x="770422.86671332" y="5738055.53444599" end_time="21:24:00" />
      <leg mode="car" />
      <activity type="home" x="770782.871003623" y="5738300.74449473" />
    </plan>
  </person>
  
  <person id= "23" >
    <attributes>
      <attribute name="BDIAgentType" class="java.lang.String" >io.github.agentsoz.ees.agents.Resident</attribute>
    </attributes>
    <plan selected="yes">
      <activity type="home" x="797534.988374339" y="5769063.05523008" end_time="09:22:00" />
      <leg mode="car" />
      <activity type="work" x="779018.190652848" y="5744557.78793347" end_time="12:09:00" />
      <leg mode="car" />
      <activity type="beach" x="790767.229202907" y="5751238.71465189" end_time="14:38:00" />
      <leg mode="car" />
      <activity type="other" x="789861.480645674" y="5753138.57302227" end_time="17:26:00" />
      <leg mode="car" />
      <activity type="home" x="797534.988374339" y="5769063.05523008" />
    </plan>
  </person>
  
  <person id= "24" >
    <attributes>
      <attribute name="BDIAgentType" class="java.lang.String" >io.github.agentsoz.ees.agents.Resident</attribute>
    </attributes>
    <plan selected="yes">
      <activity type="home" x="793500.664268104" y="5783772.28456975" end_time="02:37:00" />
      <leg mode="car" />
      <activity type="other" x="771396.301080196" y="5738862.70157473" end_time="04:49:00" />
      <leg mode="car" />
      <activity type="home" x="793500.664268104" y="5783772.28456975" end_time="06:40:00" />
      <leg mode="car" />
      <activity type="shops" x="790330.833186088" y="5752142.2955515" end_time="09:29:00" />
      <leg mode="car" />
      <activity type="home" x="793500.664268104" y="5783772.28456975" end_time="13:03:00" />
      <leg mode="car" />
      <activity type="shops" x="790590.045474375" y="5751761.08697407" end_time="15:43:00" />
      <leg mode="car" />
      <activity type="other" x="789816.421674447" y="5753213.33592403" end_time="16:05:00" />
      <leg mode="car" />
      <activity type="shops" x="790758.073077941" y="5752180.90520598" end_time="19:38:00" />
      <leg mode="car" />
      <activity type="home" x="793500.664268104" y="5783772.28456975" />
    </plan>
  </person>
  
  <person id= "25" >
    <attributes>
      <attribute name="BDIAgentType" class="java.lang.String" >io.github.agentsoz.ees.agents.Resident</attribute>
    </attributes>
    <plan selected="yes">
      <activity type="home" x="768602.612017012" y="5738238.03228823" end_time="10:42:00" />
      <leg mode="car" />
      <activity type="work" x="759292.525850378" y="5730231.89316184" end_time="14:56:00" />
      <leg mode="car" />
      <activity type="beach" x="778247.725118489" y="5743352.11543371" end_time="17:27:00" />
      <leg mode="car" />
      <activity type="home" x="768602.612017012" y="5738238.03228823" />
    </plan>
  </person>
  
  <person id= "26" >
    <attributes>
      <attribute name="BDIAgentType" class="java.lang.String" >io.github.agentsoz.ees.agents.Resident</attribute>
    </attributes>
    <plan selected="yes">
      <activity type="home" x="793824.817229826" y="5772479.59385999" end_time="09:31:00" />
      <leg mode="car" />
      <activity type="beach" x="790568.951774962" y="5751325.2355685" end_time="10:43:00" />
      <leg mode="car" />
      <activity type="other" x="789861.480645674" y="5753138.57302227" end_time="12:47:00" />
      <leg mode="car" />
      <activity type="home" x="793824.817229826" y="5772479.59385999" end_time="14:09:00" />
      <leg mode="car" />
      <activity type="beach" x="790560.824945767" y="5751343.63519774" end_time="19:37:00" />
      <leg mode="car" />
      <activity type="home" x="793824.817229826" y="5772479.59385999" />
    </plan>
  </person>
  
  <person id= "27" >
    <attributes>
      <attribute name="BDIAgentType" class="java.lang.String" >io.github.agentsoz.ees.agents.Resident</attribute>
    </attributes>
    <plan selected="yes">
      <activity type="home" x="805214.902661379" y="5786571.05860127" end_time="08:36:00" />
      <leg mode="car" />
      <activity type="work" x="789737.872727453" y="5752616.12824371" end_time="17:02:00" />
      <leg mode="car" />
      <activity type="shops" x="790557.124573731" y="5752125.17324479" end_time="19:21:00" />
      <leg mode="car" />
      <activity type="home" x="805214.902661379" y="5786571.05860127" />
    </plan>
  </person>
  
  <person id= "28" >
    <attributes>
      <attribute name="BDIAgentType" class="java.lang.String" >io.github.agentsoz.ees.agents.Resident</attribute>
    </attributes>
    <plan selected="yes">
      <activity type="home" x="798095.068916171" y="5781659.44805791" end_time="08:54:00" />
      <leg mode="car" />
      <activity type="shops" x="790745.18128794" y="5752112.37397911" end_time="13:44:00" />
      <leg mode="car" />
      <activity type="work" x="789815.868967721" y="5752821.81748508" end_time="20:04:00" />
      <leg mode="car" />
      <activity type="home" x="798095.068916171" y="5781659.44805791" end_time="22:06:00" />
      <leg mode="car" />
      <activity type="other" x="771396.301080196" y="5738862.70157473" end_time="23:59:00" />
      <leg mode="car" />
      <activity type="home" x="798095.068916171" y="5781659.44805791" />
    </plan>
  </person>
  
  <person id= "29" >
    <attributes>
      <attribute name="BDIAgentType" class="java.lang.String" >io.github.agentsoz.ees.agents.Resident</attribute>
    </attributes>
    <plan selected="yes">
      <activity type="home" x="793425.074843277" y="5772368.30048536" end_time="07:53:00" />
      <leg mode="car" />
      <activity type="shops" x="759308.670167333" y="5730159.38066925" end_time="11:15:00" />
      <leg mode="car" />
      <activity type="home" x="793425.074843277" y="5772368.30048536" end_time="13:23:00" />
      <leg mode="car" />
      <activity type="work" x="778960.916035373" y="5744590.39991318" end_time="16:04:00" />
      <leg mode="car" />
      <activity type="other" x="778707.911695857" y="5745384.49367177" end_time="19:06:00" />
      <leg mode="car" />
      <activity type="home" x="793425.074843277" y="5772368.30048536" />
    </plan>
  </person>
  
  <person id= "30" >
    <attributes>
      <attribute name="BDIAgentType" class="java.lang.String" >io.github.agentsoz.ees.agents.Resident</attribute>
    </attributes>
    <plan selected="yes">
      <activity type="home" x="764050.78004584" y="5754987.11468029" end_time="05:59:00" />
      <leg mode="car" />
      <activity type="work" x="789912.148266323" y="5752729.5057551" end_time="09:51:00" />
      <leg mode="car" />
      <activity type="home" x="764050.78004584" y="5754987.11468029" end_time="12:52:00" />
      <leg mode="car" />
      <activity type="shops" x="790741.856121383" y="5752094.69690535" end_time="14:36:00" />
      <leg mode="car" />
      <activity type="beach" x="790040.719763306" y="5750947.02859008" end_time="18:02:00" />
      <leg mode="car" />
      <activity type="home" x="764050.78004584" y="5754987.11468029" end_time="21:42:00" />
      <leg mode="car" />
      <activity type="shops" x="790576.959141788" y="5751691.85551813" end_time="23:07:00" />
      <leg mode="car" />
      <activity type="home" x="764050.78004584" y="5754987.11468029" />
    </plan>
  </person>
  
  <person id= "31" >
    <attributes>
      <attribute name="BDIAgentType" class="java.lang.String" >io.github.agentsoz.ees.agents.Resident</attribute>
    </attributes>
    <plan selected="yes">
      <activity type="home" x="812966.593990342" y="5768222.88991152" end_time="07:02:00" />
      <leg mode="car" />
      <activity type="shops" x="778175.520327603" y="5744153.76169213" end_time="08:24:00" />
      <leg mode="car" />
      <activity type="work" x="790098.291852104" y="5754819.77500703" end_time="12:57:00" />
      <leg mode="car" />
      <activity type="other" x="771396.301080196" y="5738862.70157473" end_time="15:42:00" />
      <leg mode="car" />
      <activity type="beach" x="790568.951774962" y="5751325.2355685" end_time="16:30:00" />
      <leg mode="car" />
      <activity type="work" x="778907.540540978" y="5744529.97594215" end_time="21:58:00" />
      <leg mode="car" />
      <activity type="home" x="812966.593990342" y="5768222.88991152" end_time="22:45:00" />
      <leg mode="car" />
      <activity type="other" x="789816.421674447" y="5753213.33592403" end_time="23:59:00" />
      <leg mode="car" />
      <activity type="home" x="812966.593990342" y="5768222.88991152" />
    </plan>
  </person>
  
  <person id= "32" >
    <attributes>
      <attribute name="BDIAgentType" class="java.lang.String" >io.github.agentsoz.ees.agents.Resident</attribute>
    </attributes>
    <plan selected="yes">
      <activity type="home" x="794458.883501417" y="5778088.16240107" end_time="09:41:00" />
      <leg mode="car" />
      <activity type="work" x="789834.973197454" y="5752597.95024277" end_time="17:30:00" />
      <leg mode="car" />
      <activity type="home" x="794458.883501417" y="5778088.16240107" end_time="18:42:00" />
      <leg mode="car" />
      <activity type="other" x="789848.578586559" y="5753094.78647086" end_time="20:54:00" />
      <leg mode="car" />
      <activity type="home" x="794458.883501417" y="5778088.16240107" />
    </plan>
  </person>
  
  <person id= "33" >
    <attributes>
      <attribute name="BDIAgentType" class="java.lang.String" >io.github.agentsoz.ees.agents.Resident</attribute>
    </attributes>
    <plan selected="yes">
      <activity type="home" x="805066.181254003" y="5759379.8467319" end_time="13:36:00" />
      <leg mode="car" />
      <activity type="work" x="789970.41008551" y="5754800.81672856" end_time="16:03:00" />
      <leg mode="car" />
      <activity type="shops" x="790466.986124452" y="5752060.03957378" end_time="20:17:00" />
      <leg mode="car" />
      <activity type="home" x="805066.181254003" y="5759379.8467319" />
    </plan>
  </person>
  
  <person id= "34" >
    <attributes>
      <attribute name="BDIAgentType" class="java.lang.String" >io.github.agentsoz.ees.agents.Resident</attribute>
    </attributes>
    <plan selected="yes">
      <activity type="home" x="778989.314775467" y="5744242.6394108" end_time="08:33:00" />
      <leg mode="car" />
      <activity type="work" x="778907.540540978" y="5744529.97594215" end_time="17:54:00" />
      <leg mode="car" />
      <activity type="home" x="778989.314775467" y="5744242.6394108" end_time="20:57:00" />
      <leg mode="car" />
      <activity type="work" x="779043.721912658" y="5744521.18104089" end_time="23:59:00" />
      <leg mode="car" />
      <activity type="home" x="778989.314775467" y="5744242.6394108" />
    </plan>
  </person>
  
  <person id= "35" >
    <attributes>
      <attribute name="BDIAgentType" class="java.lang.String" >io.github.agentsoz.ees.agents.Resident</attribute>
    </attributes>
    <plan selected="yes">
      <activity type="home" x="798310.062814985" y="5782542.03067034" end_time="08:32:00" />
      <leg mode="car" />
      <activity type="other" x="789848.578586559" y="5753094.78647086" end_time="13:47:00" />
      <leg mode="car" />
      <activity type="work" x="789925.234088988" y="5752561.70349854" end_time="23:59:00" />
      <leg mode="car" />
      <activity type="home" x="798310.062814985" y="5782542.03067034" />
    </plan>
  </person>
  
  <person id= "36" >
    <attributes>
      <attribute name="BDIAgentType" class="java.lang.String" >io.github.agentsoz.ees.agents.Resident</attribute>
    </attributes>
    <plan selected="yes">
      <activity type="home" x="791136.304813131" y="5776246.27025524" end_time="08:02:00" />
      <leg mode="car" />
      <activity type="work" x="789872.47261438" y="5752811.26023417" end_time="20:28:00" />
      <leg mode="car" />
      <activity type="home" x="791136.304813131" y="5776246.27025524" />
    </plan>
  </person>
  
  <person id= "37" >
    <attributes>