<?xml version="1.0" encoding="utf-8"?>
  <!DOCTYPE population SYSTEM "http://www.matsim.org/files/dtd/population_v6.dtd">
  <population>
  <!-- ====================================================================== -->

 <person  id= "0" >
    <attributes>
      <attribute name="BDIAgentType" class="java.lang.String" >io.github.agentsoz.ees.agents.bushfire.Resident</attribute>
      <attribute name="hasDependentsAtLocation" class="java.lang.String" ></attribute>
      <attribute name="InitialResponseThreshold" class="java.lang.Double" >0.8</attribute>
      <attribute name="FinalResponseThreshold"   class="java.lang.Double" >0.8</attribute>
      <attribute name="EvacLocationPreference" class="java.lang.String">Torquay Foreshore,790771,5752462</attribute>
      <attribute name="InvacLocationPreference" class="java.lang.String">Anglesea Shops,777471,5742412</attribute>
    </attributes>
    <plan selected="yes">
      <activity type="home" x="790427.625579703" y="5769325.62264569" end_time="11:27:00" />
      <leg mode="car" />
      <activity type="beach" x="790767.229202907" y="5751238.71465189" end_time="12:14:00" />
      <leg mode="car" />
      <activity type="other" x="771396.301080196" y="5738862.70157473" end_time="14:05:00" />
      <leg mode="car" />
      <activity type="beach" x="791120.803641559" y="5752820.35296198" end_time="16:57:00" />
      <leg mode="car" />
      <activity type="work" x="778582.406265931" y="5744323.77036824" end_time="21:34:00" />
      <leg mode="car" />
      <activity type="home" x="790427.625579703" y="5769325.62264569" end_time="22:06:00" />
      <leg mode="car" />
      <activity type="other" x="771396.301080196" y="5738862.70157473" end_time="23:59:00" />
      <leg mode="car" />
      <activity type="home" x="790427.625579703" y="5769325.62264569" />
    </plan>
  </person>

  

 <person  id= "1" >
    <attributes>
      <attribute name="BDIAgentType" class="java.lang.String" >io.github.agentsoz.ees.agents.bushfire.Resident</attribute>
      <attribute name="hasDependentsAtLocation" class="java.lang.String" ></attribute>
      <attribute name="InitialResponseThreshold" class="java.lang.Double" >0.9</attribute>
      <attribute name="FinalResponseThreshold"   class="java.lang.Double" >0.2</attribute>
      <attribute name="EvacLocationPreference" class="java.lang.String">Torquay Foreshore,790771,5752462</attribute>
      <attribute name="InvacLocationPreference" class="java.lang.String">Anglesea Shops,777471,5742412</attribute>
    </attributes>
    <plan selected="yes">
      <activity type="home" x="790902.176720903" y="5768369.23985325" end_time="05:41:00" />
      <leg mode="car" />
      <activity type="work" x="779026.515472373" y="5744503.25746978" end_time="08:42:00" />
      <leg mode="car" />
      <activity type="home" x="790902.176720903" y="5768369.23985325" end_time="11:23:00" />
      <leg mode="car" />
      <activity type="shops" x="778190.084385339" y="5744106.22590521" end_time="13:17:00" />
      <leg mode="car" />
      <activity type="work" x="770414.805305086" y="5738048.92184389" end_time="17:10:00" />
      <leg mode="car" />
      <activity type="shops" x="771136.11027124" y="5738738.72647331" end_time="19:03:00" />
      <leg mode="car" />
      <activity type="home" x="790902.176720903" y="5768369.23985325" end_time="23:09:00" />
      <leg mode="car" />
      <activity type="other" x="771396.301080196" y="5738862.70157473" end_time="23:59:00" />
      <leg mode="car" />
      <activity type="home" x="790902.176720903" y="5768369.23985325" />
    </plan>
  </person>

  

 <person  id= "2" >
    <attributes>
      <attribute name="BDIAgentType" class="java.lang.String" >io.github.agentsoz.ees.agents.bushfire.Resident</attribute>
      <attribute name="hasDependentsAtLocation" class="java.lang.String" ></attribute>
      <attribute name="InitialResponseThreshold" class="java.lang.Double" >0.2</attribute>
      <attribute name="FinalResponseThreshold"   class="java.lang.Double" >0.2</attribute>
      <attribute name="EvacLocationPreference" class="java.lang.String">Torquay Foreshore,790771,5752462</attribute>
      <attribute name="InvacLocationPreference" class="java.lang.String">Anglesea Shops,777471,5742412</attribute>
    </attributes>
    <plan selected="yes">
      <activity type="home" x="792372.155035758" y="5769855.98409866" end_time="10:36:00" />
      <leg mode="car" />
      <activity type="work" x="778582.406265931" y="5744323.77036824" end_time="15:49:00" />
      <leg mode="car" />
      <activity type="beach" x="790040.719763306" y="5750947.02859008" end_time="16:41:00" />
      <leg mode="car" />
      <activity type="home" x="792372.155035758" y="5769855.98409866" end_time="18:43:00" />
      <leg mode="car" />
      <activity type="other" x="771396.301080196" y="5738862.70157473" end_time="21:57:00" />
      <leg mode="car" />
      <activity type="home" x="792372.155035758" y="5769855.98409866" />
    </plan>
  </person>

  

 <person  id= "3" >
    <attributes>
      <attribute name="BDIAgentType" class="java.lang.String" >io.github.agentsoz.ees.agents.bushfire.Resident</attribute>
      <attribute name="hasDependentsAtLocation" class="java.lang.String" >789833.760073218,5770445.99730367</attribute>
      <attribute name="InitialResponseThreshold" class="java.lang.Double" >0.3</attribute>
      <attribute name="FinalResponseThreshold"   class="java.lang.Double" >0.7</attribute>
      <attribute name="EvacLocationPreference" class="java.lang.String">Torquay Foreshore,790771,5752462</attribute>
      <attribute name="InvacLocationPreference" class="java.lang.String">Anglesea Shops,777471,5742412</attribute>
    </attributes>
    <plan selected="yes">
      <activity type="home" x="789841.325242324" y="5770441.58026908" end_time="00:01:00" />
      <leg mode="car" />
      <activity type="work" x="789622.605436139" y="5752658.19536378" end_time="05:25:00" />
      <leg mode="car" />
      <activity type="home" x="789841.325242324" y="5770441.58026908" end_time="11:50:00" />
      <leg mode="car" />
      <activity type="work" x="789916.249794762" y="5754673.38089858" end_time="15:20:00" />
      <leg mode="car" />
      <activity type="home" x="789841.325242324" y="5770441.58026908" end_time="17:10:00" />
      <leg mode="car" />
      <activity type="work" x="789942.961687305" y="5754630.51561038" end_time="21:39:00" />
      <leg mode="car" />
      <activity type="home" x="789841.325242324" y="5770441.58026908" />
    </plan>
  </person>

  

 <person  id= "4" >
    <attributes>
      <attribute name="BDIAgentType" class="java.lang.String" >io.github.agentsoz.ees.agents.bushfire.Resident</attribute>
      <attribute name="hasDependentsAtLocation" class="java.lang.String" ></attribute>
      <attribute name="InitialResponseThreshold" class="java.lang.Double" >0.9</attribute>
      <attribute name="FinalResponseThreshold"   class="java.lang.Double" >0.3</attribute>
      <attribute name="EvacLocationPreference" class="java.lang.String">Torquay Foreshore,790771,5752462</attribute>
      <attribute name="InvacLocationPreference" class="java.lang.String">Anglesea Shops,777471,5742412</attribute>
    </attributes>
    <plan selected="yes">
      <activity type="home" x="768968.271649949" y="5737957.99708437" end_time="05:25:00" />
      <leg mode="car" />
      <activity type="work" x="771181.272486644" y="5738983.61474407" end_time="17:48:00" />
      <leg mode="car" />
      <activity type="home" x="768968.271649949" y="5737957.99708437" end_time="18:44:00" />
      <leg mode="car" />
      <activity type="shops" x="778501.03482008" y="5744485.067027" end_time="23:32:00" />
      <leg mode="car" />
      <activity type="home" x="768968.271649949" y="5737957.99708437" />
    </plan>
  </person>

  

 <person  id= "5" >
    <attributes>
      <attribute name="BDIAgentType" class="java.lang.String" >io.github.agentsoz.ees.agents.bushfire.Resident</attribute>
      <attribute name="hasDependentsAtLocation" class="java.lang.String" ></attribute>
      <attribute name="InitialResponseThreshold" class="java.lang.Double" >0.8</attribute>
      <attribute name="FinalResponseThreshold"   class="java.lang.Double" >0.8</attribute>
      <attribute name="EvacLocationPreference" class="java.lang.String">Torquay Foreshore,790771,5752462</attribute>
      <attribute name="InvacLocationPreference" class="java.lang.String">Anglesea Shops,777471,5742412</attribute>
    </attributes>
    <plan selected="yes">
      <activity type="home" x="771026.283570704" y="5738584.9093687" end_time="08:24:00" />
      <leg mode="car" />
      <activity type="work" x="770440.66549888" y="5738068.22089847" end_time="21:44:00" />
      <leg mode="car" />
      <activity type="home" x="771026.283570704" y="5738584.9093687" />
    </plan>
  </person>

  

 <person  id= "6" >
    <attributes>
      <attribute name="BDIAgentType" class="java.lang.String" >io.github.agentsoz.ees.agents.bushfire.Resident</attribute>
      <attribute name="hasDependentsAtLocation" class="java.lang.String" ></attribute>
      <attribute name="InitialResponseThreshold" class="java.lang.Double" >0.1</attribute>
      <attribute name="FinalResponseThreshold"   class="java.lang.Double" >0.7</attribute>
      <attribute name="EvacLocationPreference" class="java.lang.String">Torquay Foreshore,790771,5752462</attribute>
      <attribute name="InvacLocationPreference" class="java.lang.String">Anglesea Shops,777471,5742412</attribute>
    </attributes>
    <plan selected="yes">
      <activity type="home" x="771552.336703558" y="5739101.5497076" end_time="08:59:00" />
      <leg mode="car" />
      <activity type="work" x="778582.406265931" y="5744323.77036824" end_time="17:19:00" />
      <leg mode="car" />
      <activity type="home" x="771552.336703558" y="5739101.5497076" end_time="19:36:00" />
      <leg mode="car" />
      <activity type="shops" x="771123.261766525" y="5738707.26307964" end_time="20:58:00" />
      <leg mode="car" />
      <activity type="home" x="771552.336703558" y="5739101.5497076" />
    </plan>
  </person>

  

 <person  id= "7" >
    <attributes>
      <attribute name="BDIAgentType" class="java.lang.String" >io.github.agentsoz.ees.agents.bushfire.Resident</attribute>
      <attribute name="hasDependentsAtLocation" class="java.lang.String" ></attribute>
      <attribute name="InitialResponseThreshold" class="java.lang.Double" >0.1</attribute>
      <attribute name="FinalResponseThreshold"   class="java.lang.Double" >0.4</attribute>
      <attribute name="EvacLocationPreference" class="java.lang.String">Torquay Foreshore,790771,5752462</attribute>
      <attribute name="InvacLocationPreference" class="java.lang.String">Anglesea Shops,777471,5742412</attribute>
    </attributes>
    <plan selected="yes">
      <activity type="home" x="793562.002495787" y="5769249.69549314" end_time="08:30:00" />
      <leg mode="car" />
      <activity type="work" x="778582.406265931" y="5744323.77036824" end_time="21:03:00" />
      <leg mode="car" />
      <activity type="home" x="793562.002495787" y="5769249.69549314" />
    </plan>
  </person>

  

 <person  id= "8" >
    <attributes>
      <attribute name="BDIAgentType" class="java.lang.String" >io.github.agentsoz.ees.agents.bushfire.Resident</attribute>
      <attribute name="hasDependentsAtLocation" class="java.lang.String" ></attribute>
      <attribute name="InitialResponseThreshold" class="java.lang.Double" >0.1</attribute>
      <attribute name="FinalResponseThreshold"   class="java.lang.Double" >0.7</attribute>
      <attribute name="EvacLocationPreference" class="java.lang.String">Torquay Foreshore,790771,5752462</attribute>
      <attribute name="InvacLocationPreference" class="java.lang.String">Anglesea Shops,777471,5742412</attribute>
    </attributes>
    <plan selected="yes">
      <activity type="home" x="792386.175912084" y="5766177.99182483" end_time="00:01:00" />
      <leg mode="car" />
      <activity type="work" x="770422.86671332" y="5738055.53444599" end_time="04:13:00" />
      <leg mode="car" />
      <activity type="home" x="792386.175912084" y="5766177.99182483" end_time="09:59:00" />
      <leg mode="car" />
      <activity type="work" x="778582.406265931" y="5744323.77036824" end_time="16:06:00" />
      <leg mode="car" />
      <activity type="home" x="792386.175912084" y="5766177.99182483" end_time="18:16:00" />
      <leg mode="car" />
      <activity type="shops" x="771131.458483015" y="5738716.99199356" end_time="20:04:00" />
      <leg mode="car" />
      <activity type="other" x="771396.301080196" y="5738862.70157473" end_time="23:44:00" />
      <leg mode="car" />
      <activity type="home" x="792386.175912084" y="5766177.99182483" />
    </plan>
  </person>

  

 <person  id= "9" >
    <attributes>
      <attribute name="BDIAgentType" class="java.lang.String" >io.github.agentsoz.ees.agents.bushfire.Resident</attribute>
      <attribute name="hasDependentsAtLocation" class="java.lang.String" ></attribute>
      <attribute name="InitialResponseThreshold" class="java.lang.Double" >0.1</attribute>
      <attribute name="FinalResponseThreshold"   class="java.lang.Double" >0.7</attribute>
      <attribute name="EvacLocationPreference" class="java.lang.String">Torquay Foreshore,790771,5752462</attribute>
      <attribute name="InvacLocationPreference" class="java.lang.String">Anglesea Shops,777471,5742412</attribute>
    </attributes>
    <plan selected="yes">
      <activity type="home" x="789662.948252" y="5769361.76533758" end_time="08:18:00" />
      <leg mode="car" />
      <activity type="work" x="778907.540540978" y="5744529.97594215" end_time="13:32:00" />
      <leg mode="car" />
      <activity type="home" x="789662.948252" y="5769361.76533758" end_time="15:53:00" />
      <leg mode="car" />
      <activity type="shops" x="790589.33154598" y="5752126.23925446" end_time="16:07:00" />
      <leg mode="car" />
      <activity type="home" x="789662.948252" y="5769361.76533758" end_time="18:43:00" />
      <leg mode="car" />
      <activity type="shops" x="790540.750302263" y="5751459.35901704" end_time="21:29:00" />
      <leg mode="car" />
      <activity type="work" x="790117.90034352" y="5754764.55944767" end_time="23:59:00" />
      <leg mode="car" />
      <activity type="home" x="789662.948252" y="5769361.76533758" />
    </plan>
  </person>

  

 <person  id= "10" >
    <attributes>
      <attribute name="BDIAgentType" class="java.lang.String" >io.github.agentsoz.ees.agents.bushfire.Resident</attribute>
      <attribute name="hasDependentsAtLocation" class="java.lang.String" ></attribute>
      <attribute name="InitialResponseThreshold" class="java.lang.Double" >0.8</attribute>
      <attribute name="FinalResponseThreshold"   class="java.lang.Double" >0.8</attribute>
      <attribute name="EvacLocationPreference" class="java.lang.String">Torquay Foreshore,790771,5752462</attribute>
      <attribute name="InvacLocationPreference" class="java.lang.String">Anglesea Shops,777471,5742412</attribute>
    </attributes>
    <plan selected="yes">
      <activity type="home" x="788377.847476373" y="5750877.15883045" end_time="00:01:00" />
      <leg mode="car" />
      <activity type="other" x="789816.421674447" y="5753213.33592403" end_time="02:27:00" />
      <leg mode="car" />
      <activity type="home" x="788377.847476373" y="5750877.15883045" end_time="08:39:00" />
      <leg mode="car" />
      <activity type="work" x="789905.524080843" y="5752584.73973692" end_time="13:53:00" />
      <leg mode="car" />
      <activity type="other" x="789848.578586559" y="5753094.78647086" end_time="15:59:00" />
      <leg mode="car" />
      <activity type="beach" x="790568.951774962" y="5751325.2355685" end_time="17:57:00" />
      <leg mode="car" />
      <activity type="shops" x="790745.170473677" y="5752112.32413089" end_time="19:27:00" />
      <leg mode="car" />
      <activity type="home" x="788377.847476373" y="5750877.15883045" />
    </plan>
  </person>

  

 <person  id= "11" >
    <attributes>
      <attribute name="BDIAgentType" class="java.lang.String" >io.github.agentsoz.ees.agents.bushfire.Resident</attribute>
      <attribute name="hasDependentsAtLocation" class="java.lang.String" >797821.871411181,5769657.26039532</attribute>
      <attribute name="InitialResponseThreshold" class="java.lang.Double" >0.2</attribute>
      <attribute name="FinalResponseThreshold"   class="java.lang.Double" >0.6</attribute>
      <attribute name="EvacLocationPreference" class="java.lang.String">Torquay Foreshore,790771,5752462</attribute>
      <attribute name="InvacLocationPreference" class="java.lang.String">Anglesea Shops,777471,5742412</attribute>
    </attributes>
    <plan selected="yes">
      <activity type="home" x="797840.221519791" y="5769654.91564237" end_time="03:19:00" />
      <leg mode="car" />
      <activity type="other" x="771396.301080196" y="5738862.70157473" end_time="06:13:00" />
      <leg mode="car" />
      <activity type="home" x="797840.221519791" y="5769654.91564237" end_time="09:08:00" />
      <leg mode="car" />
      <activity type="work" x="770422.86671332" y="5738055.53444599" end_time="16:27:00" />
      <leg mode="car" />
      <activity type="shops" x="778619.545995288" y="5744462.08025988" end_time="18:30:00" />
      <leg mode="car" />
      <activity type="home" x="797840.221519791" y="5769654.91564237" />
    </plan>
  </person>

  

 <person  id= "12" >
    <attributes>
      <attribute name="BDIAgentType" class="java.lang.String" >io.github.agentsoz.ees.agents.bushfire.Resident</attribute>
      <attribute name="hasDependentsAtLocation" class="java.lang.String" ></attribute>
      <attribute name="InitialResponseThreshold" class="java.lang.Double" >0.9</attribute>
      <attribute name="FinalResponseThreshold"   class="java.lang.Double" >0.6</attribute>
      <attribute name="EvacLocationPreference" class="java.lang.String">Torquay Foreshore,790771,5752462</attribute>
      <attribute name="InvacLocationPreference" class="java.lang.String">Anglesea Shops,777471,5742412</attribute>
    </attributes>
    <plan selected="yes">
      <activity type="home" x="793237.707170691" y="5766414.77514507" end_time="10:58:00" />
      <leg mode="car" />
      <activity type="work" x="789822.986903106" y="5754653.75179087" end_time="15:40:00" />
      <leg mode="car" />
      <activity type="home" x="793237.707170691" y="5766414.77514507" end_time="19:22:00" />
      <leg mode="car" />
      <activity type="shops" x="790527.04093273" y="5752242.65874533" end_time="21:13:00" />
      <leg mode="car" />
      <activity type="home" x="793237.707170691" y="5766414.77514507" />
    </plan>
  </person>

  

 <person  id= "13" >
    <attributes>
      <attribute name="BDIAgentType" class="java.lang.String" >io.github.agentsoz.ees.agents.bushfire.Resident</attribute>
      <attribute name="hasDependentsAtLocation" class="java.lang.String" ></attribute>
      <attribute name="InitialResponseThreshold" class="java.lang.Double" >0.7</attribute>
      <attribute name="FinalResponseThreshold"   class="java.lang.Double" >0.8</attribute>
      <attribute name="EvacLocationPreference" class="java.lang.String">Torquay Foreshore,790771,5752462</attribute>
      <attribute name="InvacLocationPreference" class="java.lang.String">Anglesea Shops,777471,5742412</attribute>
    </attributes>
    <plan selected="yes">
      <activity type="home" x="790851.684607067" y="5768823.68402376" end_time="08:04:00" />
      <leg mode="car" />
      <activity type="work" x="789691.063551048" y="5752822.19529835" end_time="12:08:00" />
      <leg mode="car" />
      <activity type="shops" x="790590.045474375" y="5751761.08697407" end_time="17:14:00" />
      <leg mode="car" />
      <activity type="home" x="790851.684607067" y="5768823.68402376" end_time="18:07:00" />
      <leg mode="car" />
      <activity type="shops" x="759293.636953272" y="5729990.44320517" end_time="20:40:00" />
      <leg mode="car" />
      <activity type="home" x="790851.684607067" y="5768823.68402376" />
    </plan>
  </person>

  

 <person  id= "14" >
    <attributes>
      <attribute name="BDIAgentType" class="java.lang.String" >io.github.agentsoz.ees.agents.bushfire.Resident</attribute>
      <attribute name="hasDependentsAtLocation" class="java.lang.String" >790790.553901218,5766892.43210325</attribute>
      <attribute name="InitialResponseThreshold" class="java.lang.Double" >0.3</attribute>
      <attribute name="FinalResponseThreshold"   class="java.lang.Double" >0.9</attribute>
      <attribute name="EvacLocationPreference" class="java.lang.String">Torquay Foreshore,790771,5752462</attribute>
      <attribute name="InvacLocationPreference" class="java.lang.String">Anglesea Shops,777471,5742412</attribute>
    </attributes>
    <plan selected="yes">
      <activity type="home" x="790792.888270602" y="5766880.74152204" end_time="13:00:00" />
      <leg mode="car" />
      <activity type="other" x="759157.839965405" y="5730302.57810009" end_time="14:20:00" />
      <leg mode="car" />
      <activity type="home" x="790792.888270602" y="5766880.74152204" />
    </plan>
  </person>

  

 <person  id= "15" >
    <attributes>
      <attribute name="BDIAgentType" class="java.lang.String" >io.github.agentsoz.ees.agents.bushfire.Resident</attribute>
      <attribute name="hasDependentsAtLocation" class="java.lang.String" >791394.368829883,5771299.72807106</attribute>
      <attribute name="InitialResponseThreshold" class="java.lang.Double" >0.2</attribute>
      <attribute name="FinalResponseThreshold"   class="java.lang.Double" >0.8</attribute>
      <attribute name="EvacLocationPreference" class="java.lang.String">Torquay Foreshore,790771,5752462</attribute>
      <attribute name="InvacLocationPreference" class="java.lang.String">Anglesea Shops,777471,5742412</attribute>
    </attributes>
    <plan selected="yes">
      <activity type="home" x="791405.80448366" y="5771281.640967" end_time="09:27:00" />
      <leg mode="car" />
      <activity type="work" x="789949.515767737" y="5752727.32925397" end_time="12:04:00" />
      <leg mode="car" />
      <activity type="home" x="791405.80448366" y="5771281.640967" end_time="14:44:00" />
      <leg mode="car" />
      <activity type="other" x="778707.911695857" y="5745384.49367177" end_time="16:37:00" />
      <leg mode="car" />
      <activity type="shops" x="778190.084385339" y="5744106.22590521" end_time="19:01:00" />
      <leg mode="car" />
      <activity type="home" x="791405.80448366" y="5771281.640967" />
    </plan>
  </person>

  

 <person  id= "16" >
    <attributes>
      <attribute name="BDIAgentType" class="java.lang.String" >io.github.agentsoz.ees.agents.bushfire.Resident</attribute>
      <attribute name="hasDependentsAtLocation" class="java.lang.String" >790124.883132835,5766085.77040476</attribute>
      <attribute name="InitialResponseThreshold" class="java.lang.Double" >0.3</attribute>
      <attribute name="FinalResponseThreshold"   class="java.lang.Double" >0.8</attribute>
      <attribute name="EvacLocationPreference" class="java.lang.String">Torquay Foreshore,790771,5752462</attribute>
      <attribute name="InvacLocationPreference" class="java.lang.String">Anglesea Shops,777471,5742412</attribute>
    </attributes>
    <plan selected="yes">
      <activity type="home" x="790135.491156408" y="5766075.51748411" end_time="05:59:00" />
      <leg mode="car" />
      <activity type="work" x="789931.860992373" y="5752762.88436891" end_time="09:18:00" />
      <leg mode="car" />
      <activity type="home" x="790135.491156408" y="5766075.51748411" end_time="11:26:00" />
      <leg mode="car" />
      <activity type="work" x="789795.894655112" y="5752605.26816154" end_time="14:36:00" />
      <leg mode="car" />
      <activity type="home" x="790135.491156408" y="5766075.51748411" end_time="16:57:00" />
      <leg mode="car" />
      <activity type="work" x="779119.277432266" y="5744489.66345116" end_time="21:11:00" />
      <leg mode="car" />
      <activity type="home" x="790135.491156408" y="5766075.51748411" />
    </plan>
  </person>

  

 <person  id= "17" >
    <attributes>
      <attribute name="BDIAgentType" class="java.lang.String" >io.github.agentsoz.ees.agents.bushfire.Resident</attribute>
      <attribute name="hasDependentsAtLocation" class="java.lang.String" ></attribute>
      <attribute name="InitialResponseThreshold" class="java.lang.Double" >0.6</attribute>
      <attribute name="FinalResponseThreshold"   class="java.lang.Double" >0.6</attribute>
      <attribute name="EvacLocationPreference" class="java.lang.String">Torquay Foreshore,790771,5752462</attribute>
      <attribute name="InvacLocationPreference" class="java.lang.String">Anglesea Shops,777471,5742412</attribute>
    </attributes>
    <plan selected="yes">
      <activity type="home" x="795388.598092888" y="5770256.95756707" end_time="04:04:00" />
      <leg mode="car" />
      <activity type="other" x="778707.911695857" y="5745384.49367177" end_time="07:57:00" />
      <leg mode="car" />
      <activity type="home" x="795388.598092888" y="5770256.95756707" end_time="08:01:00" />
      <leg mode="car" />
      <activity type="work" x="778994.682746903" y="5744525.34326013" end_time="13:44:00" />
      <leg mode="car" />
      <activity type="shops" x="778209.304476109" y="5744067.28292208" end_time="18:21:00" />
      <leg mode="car" />
      <activity type="home" x="795388.598092888" y="5770256.95756707" />
    </plan>
  </person>

  

 <person  id= "18" >
    <attributes>
      <attribute name="BDIAgentType" class="java.lang.String" >io.github.agentsoz.ees.agents.bushfire.Resident</attribute>
      <attribute name="hasDependentsAtLocation" class="java.lang.String" >789588.651891821,5767569.59643418</attribute>
      <attribute name="InitialResponseThreshold" class="java.lang.Double" >0.3</attribute>
      <attribute name="FinalResponseThreshold"   class="java.lang.Double" >0.5</attribute>
      <attribute name="EvacLocationPreference" class="java.lang.String">Torquay Foreshore,790771,5752462</attribute>
      <attribute name="InvacLocationPreference" class="java.lang.String">Anglesea Shops,777471,5742412</attribute>
    </attributes>
    <plan selected="yes">
      <activity type="home" x="789590.644320385" y="5767564.34774388" end_time="10:14:00" />
      <leg mode="car" />
      <activity type="work" x="790529.350420148" y="5754735.50360634" end_time="14:15:00" />
      <leg mode="car" />
      <activity type="shops" x="790545.396944904" y="5752090.74147692" end_time="20:20:00" />
      <leg mode="car" />
      <activity type="work" x="789977.656539064" y="5752742.82728764" end_time="23:59:00" />
      <leg mode="car" />
      <activity type="home" x="789590.644320385" y="5767564.34774388" />
    </plan>
  </person>

  

 <person  id= "19" >
    <attributes>
      <attribute name="BDIAgentType" class="java.lang.String" >io.github.agentsoz.ees.agents.bushfire.Resident</attribute>
      <attribute name="hasDependentsAtLocation" class="java.lang.String" >792186.767881361,5753957.75212943</attribute>
      <attribute name="InitialResponseThreshold" class="java.lang.Double" >0.2</attribute>
      <attribute name="FinalResponseThreshold"   class="java.lang.Double" >0.6</attribute>
      <attribute name="EvacLocationPreference" class="java.lang.String">Torquay Foreshore,790771,5752462</attribute>
      <attribute name="InvacLocationPreference" class="java.lang.String">Anglesea Shops,777471,5742412</attribute>
    </attributes>
    <plan selected="yes">
      <activity type="home" x="792190.211278519" y="5753945.60129556" end_time="08:09:00" />
      <leg mode="car" />
      <activity type="work" x="789977.656539064" y="5752742.82728764" end_time="13:53:00" />
      <leg mode="car" />
      <activity type="beach" x="790672.762749222" y="5751729.94020213" end_time="15:06:00" />
      <leg mode="car" />
      <activity type="shops" x="770386.166527788" y="5738024.7335014" end_time="17:39:00" />
      <leg mode="car" />
      <activity type="home" x="792190.211278519" y="5753945.60129556" />
    </plan>
  </person>

  

 <person  id= "20" >
    <attributes>
      <attribute name="BDIAgentType" class="java.lang.String" >io.github.agentsoz.ees.agents.bushfire.Resident</attribute>
      <attribute name="hasDependentsAtLocation" class="java.lang.String" ></attribute>
      <attribute name="InitialResponseThreshold" class="java.lang.Double" >0.4</attribute>
      <attribute name="FinalResponseThreshold"   class="java.lang.Double" >0.4</attribute>
      <attribute name="EvacLocationPreference" class="java.lang.String">Torquay Foreshore,790771,5752462</attribute>
      <attribute name="InvacLocationPreference" class="java.lang.String">Anglesea Shops,777471,5742412</attribute>
    </attributes>
    <plan selected="yes">
      <activity type="home" x="788078.054088647" y="5751166.19227701" end_time="13:27:00" />
      <leg mode="car" />
      <activity type="shops" x="790037.734531902" y="5752692.4273591" end_time="15:02:00" />
      <leg mode="car" />
      <activity type="home" x="788078.054088647" y="5751166.19227701" end_time="17:12:00" />
      <leg mode="car" />
      <activity type="shops" x="790662.873939103" y="5752112.40259847" end_time="18:46:00" />
      <leg mode="car" />
      <activity type="home" x="788078.054088647" y="5751166.19227701" end_time="21:13:00" />
      <leg mode="car" />
      <activity type="shops" x="778634.439615756" y="5744472.84442649" end_time="23:42:00" />
      <leg mode="car" />
      <activity type="home" x="788078.054088647" y="5751166.19227701" />
    </plan>
  </person>

  

 <person  id= "21" >
    <attributes>
      <attribute name="BDIAgentType" class="java.lang.String" >io.github.agentsoz.ees.agents.bushfire.Resident</attribute>