<?xml version="1.0" encoding="utf-8"?>
  <!DOCTYPE population SYSTEM "http://www.matsim.org/files/dtd/population_v6.dtd">
  <population>
  <!-- ====================================================================== -->

 <person  id= "0" >
    <attributes>
      <attribute name="BDIAgentType" class="java.lang.String" >io.github.agentsoz.ees.agents.bushfire.Resident</attribute>
      <attribute name="hasDependentsAtLocation" class="java.lang.String" ></attribute>
      <attribute name="InitialResponseThreshold" class="java.lang.Double" >0.4</attribute>
      <attribute name="FinalResponseThreshold"   class="java.lang.Double" >0.9</attribute>
      <attribute name="EvacLocationPreference" class="java.lang.String">Torquay Foreshore,790771,5752462</attribute>
      <attribute name="InvacLocationPreference" class="java.lang.String">Anglesea Shops,777471,5742412</attribute>
    </attributes>
    <plan selected="yes">
      <activity type="home" x="793344.17114693" y="5766164.02799823" end_time="05:07:00" />
      <leg mode="car" />
      <activity type="work" x="789750.094410624" y="5752828.14676966" end_time="09:29:00" />
      <leg mode="car" />
      <activity type="shops" x="790532.132010736" y="5752147.23455104" end_time="15:37:00" />
      <leg mode="car" />
      <activity type="home" x="793344.17114693" y="5766164.02799823" end_time="16:36:00" />
      <leg mode="car" />
      <activity type="work" x="789850.278003633" y="5754779.17975099" end_time="20:02:00" />
      <leg mode="car" />
      <activity type="home" x="793344.17114693" y="5766164.02799823" />
    </plan>
  </person>

  

 <person  id= "1" >
    <attributes>
      <attribute name="BDIAgentType" class="java.lang.String" >io.github.agentsoz.ees.agents.bushfire.Resident</attribute>
      <attribute name="hasDependentsAtLocation" class="java.lang.String" ></attribute>
      <attribute name="InitialResponseThreshold" class="java.lang.Double" >0.5</attribute>
      <attribute name="FinalResponseThreshold"   class="java.lang.Double" >0.6</attribute>
      <attribute name="EvacLocationPreference" class="java.lang.String">Torquay Foreshore,790771,5752462</attribute>
      <attribute name="InvacLocationPreference" class="java.lang.String">Anglesea Shops,777471,5742412</attribute>
    </attributes>
    <plan selected="yes">
      <activity type="home" x="778085.313824816" y="5744242.64527081" end_time="06:50:00" />
      <leg mode="car" />
      <activity type="work" x="778582.406265931" y="5744323.77036824" end_time="15:25:00" />
      <leg mode="car" />
      <activity type="home" x="778085.313824816" y="5744242.64527081" end_time="17:19:00" />
      <leg mode="car" />
      <activity type="shops" x="771136.11027124" y="5738738.72647331" end_time="19:26:00" />
      <leg mode="car" />
      <activity type="home" x="778085.313824816" y="5744242.64527081" />
    </plan>
  </person>

  

 <person  id= "2" >
    <attributes>
      <attribute name="BDIAgentType" class="java.lang.String" >io.github.agentsoz.ees.agents.bushfire.Resident</attribute>
      <attribute name="hasDependentsAtLocation" class="java.lang.String" ></attribute>
      <attribute name="InitialResponseThreshold" class="java.lang.Double" >0.6</attribute>
      <attribute name="FinalResponseThreshold"   class="java.lang.Double" >0.8</attribute>
      <attribute name="EvacLocationPreference" class="java.lang.String">Torquay Foreshore,790771,5752462</attribute>
      <attribute name="InvacLocationPreference" class="java.lang.String">Anglesea Shops,777471,5742412</attribute>
    </attributes>
    <plan selected="yes">
      <activity type="home" x="796822.937351263" y="5770518.50036766" end_time="05:55:00" />
      <leg mode="car" />
      <activity type="work" x="770440.66549888" y="5738068.22089847" end_time="08:37:00" />
      <leg mode="car" />
      <activity type="home" x="796822.937351263" y="5770518.50036766" end_time="13:59:00" />
      <leg mode="car" />
      <activity type="work" x="770419.298108957" y="5738055.52018284" end_time="17:21:00" />
      <leg mode="car" />
      <activity type="beach" x="777653.935985867" y="5741894.63303192" end_time="18:16:00" />
      <leg mode="car" />
      <activity type="home" x="796822.937351263" y="5770518.50036766" />
    </plan>
  </person>

  

 <person  id= "3" >
    <attributes>
      <attribute name="BDIAgentType" class="java.lang.String" >io.github.agentsoz.ees.agents.bushfire.Resident</attribute>
      <attribute name="hasDependentsAtLocation" class="java.lang.String" ></attribute>
      <attribute name="InitialResponseThreshold" class="java.lang.Double" >0.6</attribute>
      <attribute name="FinalResponseThreshold"   class="java.lang.Double" >0.6</attribute>
      <attribute name="EvacLocationPreference" class="java.lang.String">Torquay Foreshore,790771,5752462</attribute>
      <attribute name="InvacLocationPreference" class="java.lang.String">Anglesea Shops,777471,5742412</attribute>
    </attributes>
    <plan selected="yes">
      <activity type="home" x="794881.80215732" y="5770108.83030935" end_time="08:26:00" />
      <leg mode="car" />
      <activity type="work" x="770440.66549888" y="5738068.22089847" end_time="21:11:00" />
      <leg mode="car" />
      <activity type="home" x="794881.80215732" y="5770108.83030935" />
    </plan>
  </person>

  

 <person  id= "4" >
    <attributes>
      <attribute name="BDIAgentType" class="java.lang.String" >io.github.agentsoz.ees.agents.bushfire.Resident</attribute>
      <attribute name="hasDependentsAtLocation" class="java.lang.String" ></attribute>
      <attribute name="InitialResponseThreshold" class="java.lang.Double" >0.9</attribute>
      <attribute name="FinalResponseThreshold"   class="java.lang.Double" >0.8</attribute>
      <attribute name="EvacLocationPreference" class="java.lang.String">Torquay Foreshore,790771,5752462</attribute>
      <attribute name="InvacLocationPreference" class="java.lang.String">Anglesea Shops,777471,5742412</attribute>
    </attributes>
    <plan selected="yes">
      <activity type="home" x="790717.779885591" y="5767452.18591426" end_time="08:11:00" />
      <leg mode="car" />
      <activity type="work" x="759292.525850378" y="5730231.89316184" end_time="12:07:00" />
      <leg mode="car" />
      <activity type="home" x="790717.779885591" y="5767452.18591426" end_time="15:54:00" />
      <leg mode="car" />
      <activity type="shops" x="759292.957293393" y="5730046.69255781" end_time="17:36:00" />
      <leg mode="car" />
      <activity type="home" x="790717.779885591" y="5767452.18591426" />
    </plan>
  </person>

  

 <person  id= "5" >
    <attributes>
      <attribute name="BDIAgentType" class="java.lang.String" >io.github.agentsoz.ees.agents.bushfire.Resident</attribute>
      <attribute name="hasDependentsAtLocation" class="java.lang.String" ></attribute>
      <attribute name="InitialResponseThreshold" class="java.lang.Double" >0.2</attribute>
      <attribute name="FinalResponseThreshold"   class="java.lang.Double" >0.2</attribute>
      <attribute name="EvacLocationPreference" class="java.lang.String">Torquay Foreshore,790771,5752462</attribute>
      <attribute name="InvacLocationPreference" class="java.lang.String">Anglesea Shops,777471,5742412</attribute>
    </attributes>
    <plan selected="yes">
      <activity type="home" x="787876.870936533" y="5750116.043247" end_time="04:46:00" />
      <leg mode="car" />
      <activity type="work" x="759256.131142296" y="5730278.39533422" end_time="08:31:00" />
      <leg mode="car" />
      <activity type="home" x="787876.870936533" y="5750116.043247" end_time="11:06:00" />
      <leg mode="car" />
      <activity type="work" x="790097.91749317" y="5754855.97938242" end_time="18:19:00" />
      <leg mode="car" />
      <activity type="home" x="787876.870936533" y="5750116.043247" />
    </plan>
  </person>

  

 <person  id= "6" >
    <attributes>
      <attribute name="BDIAgentType" class="java.lang.String" >io.github.agentsoz.ees.agents.bushfire.Resident</attribute>
      <attribute name="hasDependentsAtLocation" class="java.lang.String" ></attribute>
      <attribute name="InitialResponseThreshold" class="java.lang.Double" >0.6</attribute>
      <attribute name="FinalResponseThreshold"   class="java.lang.Double" >0.7</attribute>
      <attribute name="EvacLocationPreference" class="java.lang.String">Torquay Foreshore,790771,5752462</attribute>
      <attribute name="InvacLocationPreference" class="java.lang.String">Anglesea Shops,777471,5742412</attribute>
    </attributes>
    <plan selected="yes">
      <activity type="home" x="777400.440967656" y="5742270.06506052" end_time="04:31:00" />
      <leg mode="car" />
      <activity type="work" x="779114.215872925" y="5744467.30459213" end_time="13:57:00" />
      <leg mode="car" />
      <activity type="home" x="777400.440967656" y="5742270.06506052" end_time="14:45:00" />
      <leg mode="car" />
      <activity type="beach" x="790568.951774962" y="5751325.2355685" end_time="17:24:00" />
      <leg mode="car" />
      <activity type="work" x="759242.842466952" y="5730260.94977307" end_time="23:59:00" />
      <leg mode="car" />
      <activity type="home" x="777400.440967656" y="5742270.06506052" />
    </plan>
  </person>

  

 <person  id= "7" >
    <attributes>
      <attribute name="BDIAgentType" class="java.lang.String" >io.github.agentsoz.ees.agents.bushfire.Resident</attribute>
      <attribute name="hasDependentsAtLocation" class="java.lang.String" ></attribute>
      <attribute name="InitialResponseThreshold" class="java.lang.Double" >0.1</attribute>
      <attribute name="FinalResponseThreshold"   class="java.lang.Double" >0.9</attribute>
      <attribute name="EvacLocationPreference" class="java.lang.String">Torquay Foreshore,790771,5752462</attribute>
      <attribute name="InvacLocationPreference" class="java.lang.String">Anglesea Shops,777471,5742412</attribute>
    </attributes>
    <plan selected="yes">
      <activity type="home" x="776749.520937337" y="5743404.49807396" end_time="08:21:00" />
      <leg mode="car" />
      <activity type="work" x="778582.406265931" y="5744323.77036824" end_time="20:17:00" />
      <leg mode="car" />
      <activity type="home" x="776749.520937337" y="5743404.49807396" />
    </plan>
  </person>

  

 <person  id= "8" >
    <attributes>
      <attribute name="BDIAgentType" class="java.lang.String" >io.github.agentsoz.ees.agents.bushfire.Resident</attribute>
      <attribute name="hasDependentsAtLocation" class="java.lang.String" >760168.60356783,5729130.49404155</attribute>
      <attribute name="InitialResponseThreshold" class="java.lang.Double" >0.3</attribute>
      <attribute name="FinalResponseThreshold"   class="java.lang.Double" >0.8</attribute>
      <attribute name="EvacLocationPreference" class="java.lang.String">Torquay Foreshore,790771,5752462</attribute>
      <attribute name="InvacLocationPreference" class="java.lang.String">Anglesea Shops,777471,5742412</attribute>
    </attributes>
    <plan selected="yes">
      <activity type="home" x="760168.638250292" y="5729130.14104214" end_time="00:01:00" />
      <leg mode="car" />
      <activity type="other" x="759157.839965405" y="5730302.57810009" end_time="03:42:00" />
      <leg mode="car" />
      <activity type="home" x="760168.638250292" y="5729130.14104214" end_time="10:02:00" />
      <leg mode="car" />
      <activity type="shops" x="759295.244333777" y="5729936.9738386" end_time="12:13:00" />
      <leg mode="car" />
      <activity type="home" x="760168.638250292" y="5729130.14104214" end_time="16:21:00" />
      <leg mode="car" />
      <activity type="shops" x="790522.788096078" y="5752133.72234104" end_time="18:10:00" />
      <leg mode="car" />
      <activity type="home" x="760168.638250292" y="5729130.14104214" />
    </plan>
  </person>

  

 <person  id= "9" >
    <attributes>
      <attribute name="BDIAgentType" class="java.lang.String" >io.github.agentsoz.ees.agents.bushfire.Resident</attribute>
      <attribute name="hasDependentsAtLocation" class="java.lang.String" ></attribute>
      <attribute name="InitialResponseThreshold" class="java.lang.Double" >0.7</attribute>
      <attribute name="FinalResponseThreshold"   class="java.lang.Double" >0.9</attribute>
      <attribute name="EvacLocationPreference" class="java.lang.String">Torquay Foreshore,790771,5752462</attribute>
      <attribute name="InvacLocationPreference" class="java.lang.String">Anglesea Shops,777471,5742412</attribute>
    </attributes>
    <plan selected="yes">
      <activity type="home" x="768178.931383717" y="5738073.80303171" end_time="10:10:00" />
      <leg mode="car" />
      <activity type="work" x="770440.66549888" y="5738068.22089847" end_time="14:02:00" />
      <leg mode="car" />
      <activity type="shops" x="770326.526265268" y="5738019.45766535" end_time="16:07:00" />
      <leg mode="car" />
      <activity type="home" x="768178.931383717" y="5738073.80303171" end_time="20:59:00" />
      <leg mode="car" />
      <activity type="work" x="770427.693470059" y="5738062.11264301" end_time="23:59:00" />
      <leg mode="car" />
      <activity type="home" x="768178.931383717" y="5738073.80303171" />
    </plan>
  </person>

  

 <person  id= "10" >
    <attributes>
      <attribute name="BDIAgentType" class="java.lang.String" >io.github.agentsoz.ees.agents.bushfire.Resident</attribute>
      <attribute name="hasDependentsAtLocation" class="java.lang.String" ></attribute>
      <attribute name="InitialResponseThreshold" class="java.lang.Double" >0.8</attribute>
      <attribute name="FinalResponseThreshold"   class="java.lang.Double" >0.9</attribute>
      <attribute name="EvacLocationPreference" class="java.lang.String">Torquay Foreshore,790771,5752462</attribute>
      <attribute name="InvacLocationPreference" class="java.lang.String">Anglesea Shops,777471,5742412</attribute>
    </attributes>
    <plan selected="yes">
      <activity type="home" x="791919.642486352" y="5770618.63978705" end_time="10:53:00" />
      <leg mode="car" />
      <activity type="shops" x="790589.33154598" y="5752126.23925446" end_time="13:48:00" />
      <leg mode="car" />
      <activity type="work" x="789923.018508151" y="5752720.5780789" end_time="17:35:00" />
      <leg mode="car" />
      <activity type="home" x="791919.642486352" y="5770618.63978705" end_time="19:22:00" />
      <leg mode="car" />
      <activity type="shops" x="790531.524603405" y="5751491.05011403" end_time="20:17:00" />
      <leg mode="car" />
      <activity type="home" x="791919.642486352" y="5770618.63978705" />
    </plan>
  </person>

  

 <person  id= "11" >
    <attributes>
      <attribute name="BDIAgentType" class="java.lang.String" >io.github.agentsoz.ees.agents.bushfire.Resident</attribute>
      <attribute name="hasDependentsAtLocation" class="java.lang.String" ></attribute>
      <attribute name="InitialResponseThreshold" class="java.lang.Double" >0.8</attribute>
      <attribute name="FinalResponseThreshold"   class="java.lang.Double" >0.8</attribute>
      <attribute name="EvacLocationPreference" class="java.lang.String">Torquay Foreshore,790771,5752462</attribute>
      <attribute name="InvacLocationPreference" class="java.lang.String">Anglesea Shops,777471,5742412</attribute>
    </attributes>
    <plan selected="yes">
      <activity type="home" x="759613.904126227" y="5729274.13250599" end_time="00:01:00" />
      <leg mode="car" />
      <activity type="work" x="759288.197405271" y="5730271.2215411" end_time="05:24:00" />
      <leg mode="car" />
      <activity type="home" x="759613.904126227" y="5729274.13250599" end_time="09:32:00" />
      <leg mode="car" />
      <activity type="work" x="759241.045213286" y="5730217.80525214" end_time="12:31:00" />
      <leg mode="car" />
      <activity type="shops" x="759292.239809055" y="5730079.62173957" end_time="14:58:00" />
      <leg mode="car" />
      <activity type="work" x="770414.805305086" y="5738048.92184389" end_time="18:10:00" />
      <leg mode="car" />
      <activity type="home" x="759613.904126227" y="5729274.13250599" />
    </plan>
  </person>

  

 <person  id= "12" >
    <attributes>
      <attribute name="BDIAgentType" class="java.lang.String" >io.github.agentsoz.ees.agents.bushfire.Resident</attribute>
      <attribute name="hasDependentsAtLocation" class="java.lang.String" >793026.294157949,5769731.39980998</attribute>
      <attribute name="InitialResponseThreshold" class="java.lang.Double" >0.3</attribute>
      <attribute name="FinalResponseThreshold"   class="java.lang.Double" >0.3</attribute>
      <attribute name="EvacLocationPreference" class="java.lang.String">Torquay Foreshore,790771,5752462</attribute>
      <attribute name="InvacLocationPreference" class="java.lang.String">Anglesea Shops,777471,5742412</attribute>
    </attributes>
    <plan selected="yes">
      <activity type="home" x="793026.522486701" y="5769731.10631639" end_time="12:25:00" />
      <leg mode="car" />
      <activity type="work" x="779043.721912658" y="5744521.18104089" end_time="17:02:00" />
      <leg mode="car" />
      <activity type="other" x="771396.301080196" y="5738862.70157473" end_time="18:50:00" />
      <leg mode="car" />
      <activity type="home" x="793026.522486701" y="5769731.10631639" />
    </plan>
  </person>

  

 <person  id= "13" >
    <attributes>
      <attribute name="BDIAgentType" class="java.lang.String" >io.github.agentsoz.ees.agents.bushfire.Resident</attribute>
      <attribute name="hasDependentsAtLocation" class="java.lang.String" ></attribute>
      <attribute name="InitialResponseThreshold" class="java.lang.Double" >0.7</attribute>
      <attribute name="FinalResponseThreshold"   class="java.lang.Double" >0.7</attribute>
      <attribute name="EvacLocationPreference" class="java.lang.String">Torquay Foreshore,790771,5752462</attribute>
      <attribute name="InvacLocationPreference" class="java.lang.String">Anglesea Shops,777471,5742412</attribute>
    </attributes>
    <plan selected="yes">
      <activity type="home" x="792297.997341133" y="5771312.80310845" end_time="03:58:00" />
      <leg mode="car" />
      <activity type="other" x="789777.66185784" y="5753252.7750329" end_time="05:04:00" />
      <leg mode="car" />
      <activity type="home" x="792297.997341133" y="5771312.80310845" end_time="09:43:00" />
      <leg mode="car" />
      <activity type="work" x="778582.406265931" y="5744323.77036824" end_time="16:41:00" />
      <leg mode="car" />
      <activity type="shops" x="771115.470778359" y="5738664.67426718" end_time="20:12:00" />
      <leg mode="car" />
      <activity type="home" x="792297.997341133" y="5771312.80310845" end_time="22:13:00" />
      <leg mode="car" />
      <activity type="other" x="771396.301080196" y="5738862.70157473" end_time="23:59:00" />
      <leg mode="car" />
      <activity type="home" x="792297.997341133" y="5771312.80310845" />
    </plan>
  </person>

  

 <person  id= "14" >
    <attributes>
      <attribute name="BDIAgentType" class="java.lang.String" >io.github.agentsoz.ees.agents.bushfire.Resident</attribute>
      <attribute name="hasDependentsAtLocation" class="java.lang.String" ></attribute>
      <attribute name="InitialResponseThreshold" class="java.lang.Double" >0.8</attribute>
      <attribute name="FinalResponseThreshold"   class="java.lang.Double" >0.9</attribute>
      <attribute name="EvacLocationPreference" class="java.lang.String">Torquay Foreshore,790771,5752462</attribute>
      <attribute name="InvacLocationPreference" class="java.lang.String">Anglesea Shops,777471,5742412</attribute>
    </attributes>
    <plan selected="yes">
      <activity type="home" x="790349.852270576" y="5772207.53614311" end_time="10:18:00" />
      <leg mode="car" />
      <activity type="work" x="789670.800796529" y="5752817.53456528" end_time="14:46:00" />
      <leg mode="car" />
      <activity type="shops" x="790554.831967884" y="5752081.79891957" end_time="17:08:00" />
      <leg mode="car" />
      <activity type="home" x="790349.852270576" y="5772207.53614311" end_time="19:03:00" />
      <leg mode="car" />
      <activity type="shops" x="770326.526265268" y="5738019.45766535" end_time="21:07:00" />
      <leg mode="car" />
      <activity type="other" x="771396.301080196" y="5738862.70157473" end_time="23:27:00" />
      <leg mode="car" />
      <activity type="home" x="790349.852270576" y="5772207.53614311" />
    </plan>
  </person>

  

 <person  id= "15" >
    <attributes>
      <attribute name="BDIAgentType" class="java.lang.String" >io.github.agentsoz.ees.agents.bushfire.Resident</attribute>
      <attribute name="hasDependentsAtLocation" class="java.lang.String" ></attribute>
      <attribute name="InitialResponseThreshold" class="java.lang.Double" >0.4</attribute>
      <attribute name="FinalResponseThreshold"   class="java.lang.Double" >0.7</attribute>
      <attribute name="EvacLocationPreference" class="java.lang.String">Torquay Foreshore,790771,5752462</attribute>
      <attribute name="InvacLocationPreference" class="java.lang.String">Anglesea Shops,777471,5742412</attribute>
    </attributes>
    <plan selected="yes">
      <activity type="home" x="792791.38904109" y="5769470.70248215" end_time="06:33:00" />
      <leg mode="car" />
      <activity type="work" x="759227.068611832" y="5730294.3296384" end_time="11:30:00" />
      <leg mode="car" />
      <activity type="shops" x="759293.636953272" y="5729990.44320517" end_time="13:12:00" />
      <leg mode="car" />
      <activity type="work" x="778582.406265931" y="5744323.77036824" end_time="21:11:00" />
      <leg mode="car" />
      <activity type="home" x="792791.38904109" y="5769470.70248215" />
    </plan>
  </person>

  

 <person  id= "16" >
    <attributes>
      <attribute name="BDIAgentType" class="java.lang.String" >io.github.agentsoz.ees.agents.bushfire.Resident</attribute>
      <attribute name="hasDependentsAtLocation" class="java.lang.String" >796970.990892137,5768542.94426814</attribute>
      <attribute name="InitialResponseThreshold" class="java.lang.Double" >0.2</attribute>
      <attribute name="FinalResponseThreshold"   class="java.lang.Double" >0.9</attribute>
      <attribute name="EvacLocationPreference" class="java.lang.String">Torquay Foreshore,790771,5752462</attribute>
      <attribute name="InvacLocationPreference" class="java.lang.String">Anglesea Shops,777471,5742412</attribute>
    </attributes>
    <plan selected="yes">
      <activity type="home" x="796971.392380294" y="5768542.49054883" end_time="05:08:00" />
      <leg mode="car" />
      <activity type="work" x="779001.728114102" y="5744546.05973185" end_time="21:11:00" />
      <leg mode="car" />
      <activity type="home" x="796971.392380294" y="5768542.49054883" />
    </plan>
  </person>

  

 <person  id= "17" >
    <attributes>
      <attribute name="BDIAgentType" class="java.lang.String" >io.github.agentsoz.ees.agents.bushfire.Resident</attribute>
      <attribute name="hasDependentsAtLocation" class="java.lang.String" >789463.387167668,5751728.94851705</attribute>
      <attribute name="InitialResponseThreshold" class="java.lang.Double" >0.2</attribute>
      <attribute name="FinalResponseThreshold"   class="java.lang.Double" >0.2</attribute>
      <attribute name="EvacLocationPreference" class="java.lang.String">Torquay Foreshore,790771,5752462</attribute>
      <attribute name="InvacLocationPreference" class="java.lang.String">Anglesea Shops,777471,5742412</attribute>
    </attributes>
    <plan selected="yes">
      <activity type="home" x="789463.863342378" y="5751728.39352007" end_time="11:16:00" />
      <leg mode="car" />
      <activity type="beach" x="790568.951774962" y="5751325.2355685" end_time="12:51:00" />
      <leg mode="car" />
      <activity type="work" x="789648.589991597" y="5752687.33372805" end_time="20:59:00" />
      <leg mode="car" />
      <activity type="home" x="789463.863342378" y="5751728.39352007" />
    </plan>
  </person>

  

 <person  id= "18" >
    <attributes>
      <attribute name="BDIAgentType" class="java.lang.String" >io.github.agentsoz.ees.agents.bushfire.Resident</attribute>
      <attribute name="hasDependentsAtLocation" class="java.lang.String" >767511.398660494,5737902.38656297</attribute>
      <attribute name="InitialResponseThreshold" class="java.lang.Double" >0.1</attribute>
      <attribute name="FinalResponseThreshold"   class="java.lang.Double" >0.8</attribute>
      <attribute name="EvacLocationPreference" class="java.lang.String">Torquay Foreshore,790771,5752462</attribute>
      <attribute name="InvacLocationPreference" class="java.lang.String">Anglesea Shops,777471,5742412</attribute>
    </attributes>
    <plan selected="yes">
      <activity type="home" x="767512.305623094" y="5737902.36726857" end_time="11:49:00" />
      <leg mode="car" />
      <activity type="work" x="770422.86671332" y="5738055.53444599" end_time="14:07:00" />
      <leg mode="car" />
      <activity type="home" x="767512.305623094" y="5737902.36726857" end_time="17:31:00" />
      <leg mode="car" />
      <activity type="work" x="770440.66549888" y="5738068.22089847" end_time="20:23:00" />
      <leg mode="car" />
      <activity type="home" x="767512.305623094" y="5737902.36726857" />
    </plan>
  </person>

  

 <person  id= "19" >
    <attributes>
      <attribute name="BDIAgentType" class="java.lang.String" >io.github.agentsoz.ees.agents.bushfire.Resident</attribute>
      <attribute name="hasDependentsAtLocation" class="java.lang.String" >791830.082306143,5766812.77696581</attribute>
      <attribute name="InitialResponseThreshold" class="java.lang.Double" >0.1</attribute>
      <attribute name="FinalResponseThreshold"   class="java.lang.Double" >0.6</attribute>
      <attribute name="EvacLocationPreference" class="java.lang.String">Torquay Foreshore,790771,5752462</attribute>
      <attribute name="InvacLocationPreference" class="java.lang.String">Anglesea Shops,777471,5742412</attribute>
    </attributes>
    <plan selected="yes">
      <activity type="home" x="791830.816674985" y="5766812.64887828" end_time="09:06:00" />
      <leg mode="car" />
      <activity type="work" x="789893.146310598" y="5752748.18737826" end_time="12:04:00" />
      <leg mode="car" />
      <activity type="home" x="791830.816674985" y="5766812.64887828" end_time="15:19:00" />
      <leg mode="car" />
      <activity type="shops" x="790251.07186009" y="5752186.88566304" end_time="17:40:00" />
      <leg mode="car" />
      <activity type="work" x="770440.66549888" y="5738068.22089847" end_time="20:43:00" />
      <leg mode="car" />
      <activity type="other" x="778707.911695857" y="5745384.49367177" end_time="22:22:00" />
      <leg mode="car" />
      <activity type="home" x="791830.816674985" y="5766812.64887828" />
    </plan>
  </person>

  

 <person  id= "20" >
    <attributes>
      <attribute name="BDIAgentType" class="java.lang.String" >io.github.agentsoz.ees.agents.bushfire.Resident</attribute>
      <attribute name="hasDependentsAtLocation" class="java.lang.String" ></attribute>
      <attribute name="InitialResponseThreshold" class="java.lang.Double" >0.4</attribute>
      <attribute name="FinalResponseThreshold"   class="java.lang.Double" >0.7</attribute>
      <attribute name="EvacLocationPreference" class="java.lang.String">Torquay Foreshore,790771,5752462</attribute>
      <attribute name="InvacLocationPreference" class="java.lang.String">Anglesea Shops,777471,5742412</attribute>
    </attributes>
    <plan selected="yes">
      <activity type="home" x="777748.834006632" y="5744323.18939366" end_time="06:17:00" />
      <leg mode="car" />
      <activity type="other" x="778707.911695857" y="5745384.49367177" end_time="09:42:00" />
      <leg mode="car" />
      <activity type="home" x="777748.834006632" y="5744323.18939366" end_time="13:54:00" />
      <leg mode="car" />
      <activity type="shops" x="778190.084385339" y="5744106.22590521" end_time="14:21:00" />
      <leg mode="car" />
      <activity type="other" x="759157.839965405" y="5730302.57810009" end_time="17:51:00" />
      <leg mode="car" />
      <activity type="work" x="759240.679037891" y="5730233.23616651" end_time="20:07:00" />
      <leg mode="car" />
      <activity type="home" x="777748.834006632" y="5744323.18939366" />
    </plan>
  </person>

  

 <person  id= "21" >
    <attributes>
      <attribute name="BDIAgentType" class="java.lang.String" >io.github.agentsoz.ees.agents.bushfire.Resident</attribute>
      <attribute name="hasDependentsAtLocation" class="java.lang.String" ></attribute>
      <attribute name="InitialResponseThreshold" class="java.lang.Double" >0.1</attribute>
      <attribute name="FinalResponseThreshold"   class="java.lang.Double" >0.9</attribute>
      <attribute name="EvacLocationPreference" class="java.lang.String">Torquay Foreshore,790771,5752462</attribute>
      <attribute name="InvacLocationPreference" class="java.lang.String">Anglesea Shops,777471,5742412</attribute>
    </attributes>
    <plan selected="yes">
      <activity type="home" x="797724.156213452" y="5768102.61649974" end_time="00:01:00" />
      <leg mode="car" />
      <activity type="work" x="789805.629221789" y="5754683.49809985" end_time="17:44:00" />
      <leg mode="car" />
      <activity type="other" x="789861.480645674" y="5753138.57302227" end_time="18:05:00" />
      <leg mode="car" />
      <activity type="home" x="797724.156213452" y="5768102.61649974" end_time="21:54:00" />
      <leg mode="car" />
      <activity type="work" x="778934.104365405" y="5744561.56030487" end_time="23:59:00" />
      <leg mode="car" />
      <activity type="home" x="797724.156213452" y="5768102.61649974" />
    </plan>
  </person>

  

 <person  id= "22" >
    <attributes>