<?xml version="1.0" encoding="utf-8"?>
  <!DOCTYPE population SYSTEM "http://www.matsim.org/files/dtd/population_v6.dtd">
  <population>
  <!-- ====================================================================== -->

 <person  id= "0" >
    <attributes>
      <attribute name="BDIAgentType" class="java.lang.String" >io.github.agentsoz.ees.agents.bushfire.Resident</attribute>
      <attribute name="HasDependentsAtLocation" class="java.lang.String" ></attribute>
      <attribute name="InitialResponseThreshold" class="java.lang.Double" >0.4</attribute>
      <attribute name="FinalResponseThreshold"   class="java.lang.Double" >0.4</attribute>
      <attribute name="ProbHomeAfterDependents"   class="java.lang.Double" >0</attribute>
      <attribute name="ProbHomeBeforeLeaving"   class="java.lang.Double" >1</attribute>
      <attribute name="EvacLocationPreference" class="java.lang.String">,768145.215009431,5778372.30932458</attribute>6
      <attribute name="InvacLocationPreference" class="java.lang.String">,790420.895905102,5752508.39440602</attribute>6
    </attributes>
    <plan selected="yes">
      <activity type="home" x="790825.840544057" y="5753504.32859648" end_time="09:06:00" />
      <leg mode="car" />
      <activity type="work" x="790097.91749317" y="5754855.97938242" end_time="12:37:00" />
      <leg mode="car" />
      <activity type="beach" x="790767.229202907" y="5751238.71465189" end_time="15:03:00" />
      <leg mode="car" />
      <activity type="home" x="790825.840544057" y="5753504.32859648" end_time="16:16:00" />
      <leg mode="car" />
      <activity type="work" x="779072.591434244" y="5744566.5299771" end_time="20:48:00" />
      <leg mode="car" />
      <activity type="home" x="790825.840544057" y="5753504.32859648" />
    </plan>
  </person>

  

 <person  id= "1" >
    <attributes>
      <attribute name="BDIAgentType" class="java.lang.String" >io.github.agentsoz.ees.agents.bushfire.Resident</attribute>
      <attribute name="HasDependentsAtLocation" class="java.lang.String" >776961.671394605,5742757.90261724</attribute>
      <attribute name="InitialResponseThreshold" class="java.lang.Double" >0.3</attribute>
      <attribute name="FinalResponseThreshold"   class="java.lang.Double" >0.7</attribute>
      <attribute name="ProbHomeAfterDependents"   class="java.lang.Double" >1</attribute>
      <attribute name="ProbHomeBeforeLeaving"   class="java.lang.Double" >0</attribute>
      <attribute name="EvacLocationPreference" class="java.lang.String">,725946.634709856,5753152.68589706</attribute>34
      <attribute name="InvacLocationPreference" class="java.lang.String">Anglesea 26,777022.127194151,5742702.49967958</attribute>34
    </attributes>
    <plan selected="yes">
      <activity type="home" x="776980.756695659" y="5742746.07202631" end_time="02:42:00" />
      <leg mode="car" />
      <activity type="other" x="778707.911695857" y="5745384.49367177" end_time="05:21:00" />
      <leg mode="car" />
      <activity type="home" x="776980.756695659" y="5742746.07202631" end_time="06:35:00" />
      <leg mode="car" />
      <activity type="shops" x="770304.616107721" y="5738003.41901043" end_time="08:36:00" />
      <leg mode="car" />
      <activity type="work" x="778994.682746903" y="5744525.34326013" end_time="12:05:00" />
      <leg mode="car" />
      <activity type="shops" x="778501.03482008" y="5744485.067027" end_time="16:15:00" />
      <leg mode="car" />
      <activity type="beach" x="778614.794764519" y="5743470.87325903" end_time="19:10:00" />
      <leg mode="car" />
      <activity type="shops" x="778226.860291899" y="5743897.65609901" end_time="21:57:00" />
      <leg mode="car" />
      <activity type="home" x="776980.756695659" y="5742746.07202631" />
    </plan>
  </person>

  

 <person  id= "2" >
    <attributes>
      <attribute name="BDIAgentType" class="java.lang.String" >io.github.agentsoz.ees.agents.bushfire.Resident</attribute>
      <attribute name="HasDependentsAtLocation" class="java.lang.String" ></attribute>
      <attribute name="InitialResponseThreshold" class="java.lang.Double" >0.6</attribute>
      <attribute name="FinalResponseThreshold"   class="java.lang.Double" >0.7</attribute>
      <attribute name="ProbHomeAfterDependents"   class="java.lang.Double" >0</attribute>
      <attribute name="ProbHomeBeforeLeaving"   class="java.lang.Double" >0</attribute>
      <attribute name="EvacLocationPreference" class="java.lang.String">,725946.634709856,5753152.68589706</attribute>68
      <attribute name="InvacLocationPreference" class="java.lang.String">Golf Fairway,777049.491377901,5744045.12128761</attribute>68
    </attributes>
    <plan selected="yes">
      <activity type="home" x="777172.873364549" y="5743648.13990958" end_time="09:49:00" />
      <leg mode="car" />
      <activity type="work" x="779026.515472373" y="5744503.25746978" end_time="13:09:00" />
      <leg mode="car" />
      <activity type="home" x="777172.873364549" y="5743648.13990958" end_time="15:17:00" />
      <leg mode="car" />
      <activity type="beach" x="778614.794764519" y="5743470.87325903" end_time="17:33:00" />
      <leg mode="car" />
      <activity type="work" x="778963.078128336" y="5744537.56795992" end_time="20:16:00" />
      <leg mode="car" />
      <activity type="home" x="777172.873364549" y="5743648.13990958" end_time="23:27:00" />
      <leg mode="car" />
      <activity type="other" x="778707.911695857" y="5745384.49367177" end_time="23:59:00" />
      <leg mode="car" />
      <activity type="home" x="777172.873364549" y="5743648.13990958" />
    </plan>
  </person>

  

 <person  id= "3" >
    <attributes>
      <attribute name="BDIAgentType" class="java.lang.String" >io.github.agentsoz.ees.agents.bushfire.Resident</attribute>
      <attribute name="HasDependentsAtLocation" class="java.lang.String" >759262.329579833,5731145.59525979</attribute>
      <attribute name="InitialResponseThreshold" class="java.lang.Double" >0.2</attribute>
      <attribute name="FinalResponseThreshold"   class="java.lang.Double" >0.4</attribute>
      <attribute name="ProbHomeAfterDependents"   class="java.lang.Double" >1</attribute>
      <attribute name="ProbHomeBeforeLeaving"   class="java.lang.Double" >0</attribute>
      <attribute name="EvacLocationPreference" class="java.lang.String">Anglesea 31,778238.09613956,5743897.03583255</attribute>100
      <attribute name="InvacLocationPreference" class="java.lang.String">Lorne 14,759253.1526794,5731132.02044698</attribute>100
    </attributes>
    <plan selected="yes">
      <activity type="home" x="759274.634824092" y="5731142.14541253" end_time="06:11:00" />
      <leg mode="car" />
      <activity type="shops" x="770304.616107721" y="5738003.41901043" end_time="09:47:00" />
      <leg mode="car" />
      <activity type="work" x="759298.019275781" y="5730296.78938106" end_time="17:41:00" />
      <leg mode="car" />
      <activity type="home" x="759274.634824092" y="5731142.14541253" />
    </plan>
  </person>

  

 <person  id= "4" >
    <attributes>
      <attribute name="BDIAgentType" class="java.lang.String" >io.github.agentsoz.ees.agents.bushfire.Resident</attribute>
      <attribute name="HasDependentsAtLocation" class="java.lang.String" ></attribute>
      <attribute name="InitialResponseThreshold" class="java.lang.Double" >0.2</attribute>
      <attribute name="FinalResponseThreshold"   class="java.lang.Double" >0.6</attribute>
      <attribute name="ProbHomeAfterDependents"   class="java.lang.Double" >0</attribute>
      <attribute name="ProbHomeBeforeLeaving"   class="java.lang.Double" >0</attribute>
      <attribute name="EvacLocationPreference" class="java.lang.String">Geelong,793176.81224368,5768999.20766906</attribute>124
      <attribute name="InvacLocationPreference" class="java.lang.String">Aireys Inlet 6,770833.045990398,5738788.90914912</attribute>124
    </attributes>
    <plan selected="yes">
      <activity type="home" x="771338.524715262" y="5738673.16917975" end_time="10:56:00" />
      <leg mode="car" />
      <activity type="work" x="770427.693470059" y="5738062.11264301" end_time="15:33:00" />
      <leg mode="car" />
      <activity type="beach" x="790560.824945767" y="5751343.63519774" end_time="17:17:00" />
      <leg mode="car" />
      <activity type="home" x="771338.524715262" y="5738673.16917975" end_time="22:16:00" />
      <leg mode="car" />
      <activity type="other" x="778707.911695857" y="5745384.49367177" end_time="23:59:00" />
      <leg mode="car" />
      <activity type="home" x="771338.524715262" y="5738673.16917975" />
    </plan>
  </person>

  

 <person  id= "5" >
    <attributes>
      <attribute name="BDIAgentType" class="java.lang.String" >io.github.agentsoz.ees.agents.bushfire.Resident</attribute>
      <attribute name="HasDependentsAtLocation" class="java.lang.String" >777339.142960385,5742905.34493012</attribute>
      <attribute name="InitialResponseThreshold" class="java.lang.Double" >0.3</attribute>
      <attribute name="FinalResponseThreshold"   class="java.lang.Double" >0.9</attribute>
      <attribute name="ProbHomeAfterDependents"   class="java.lang.Double" >1</attribute>
      <attribute name="ProbHomeBeforeLeaving"   class="java.lang.Double" >0</attribute>
      <attribute name="EvacLocationPreference" class="java.lang.String">Whites Beach,790561.111406455,5751377.09281903</attribute>152
      <attribute name="InvacLocationPreference" class="java.lang.String">Anglesea 18,777279.302558948,5742853.74076468</attribute>152
    </attributes>
    <plan selected="yes">
      <activity type="home" x="777352.434384991" y="5742901.78685211" end_time="12:26:00" />
      <leg mode="car" />
      <activity type="work" x="778994.682746903" y="5744525.34326013" end_time="17:52:00" />
      <leg mode="car" />
      <activity type="home" x="777352.434384991" y="5742901.78685211" end_time="20:08:00" />
      <leg mode="car" />
      <activity type="other" x="789816.421674447" y="5753213.33592403" end_time="22:53:00" />
      <leg mode="car" />
      <activity type="home" x="777352.434384991" y="5742901.78685211" />
    </plan>
  </person>

  

 <person  id= "6" >
    <attributes>
      <attribute name="BDIAgentType" class="java.lang.String" >io.github.agentsoz.ees.agents.bushfire.Resident</attribute>
      <attribute name="HasDependentsAtLocation" class="java.lang.String" ></attribute>
      <attribute name="InitialResponseThreshold" class="java.lang.Double" >0.9</attribute>
      <attribute name="FinalResponseThreshold"   class="java.lang.Double" >0.9</attribute>
      <attribute name="ProbHomeAfterDependents"   class="java.lang.Double" >0</attribute>
      <attribute name="ProbHomeBeforeLeaving"   class="java.lang.Double" >0</attribute>
      <attribute name="EvacLocationPreference" class="java.lang.String">,725946.634709856,5753152.68589706</attribute>178
      <attribute name="InvacLocationPreference" class="java.lang.String">c("", ""),c(795330.572262199, 795330.572262199),c(5756370.64103974, 5756370.64103974)</attribute>178
    </attributes>
    <plan selected="yes">
      <activity type="home" x="793330.135435565" y="5754859.10399476" end_time="09:08:00" />
      <leg mode="car" />
      <activity type="other" x="789861.480645674" y="5753138.57302227" end_time="10:32:00" />
      <leg mode="car" />
      <activity type="work" x="770440.66549888" y="5738068.22089847" end_time="15:20:00" />
      <leg mode="car" />
      <activity type="shops" x="771117.511429056" y="5738680.57730346" end_time="18:13:00" />
      <leg mode="car" />
      <activity type="home" x="793330.135435565" y="5754859.10399476" />
    </plan>
  </person>

  

 <person  id= "7" >
    <attributes>
      <attribute name="BDIAgentType" class="java.lang.String" >io.github.agentsoz.ees.agents.bushfire.Resident</attribute>
      <attribute name="HasDependentsAtLocation" class="java.lang.String" >790934.465461774,5753079.29196747</attribute>
      <attribute name="InitialResponseThreshold" class="java.lang.Double" >0.1</attribute>
      <attribute name="FinalResponseThreshold"   class="java.lang.Double" >0.4</attribute>
      <attribute name="ProbHomeAfterDependents"   class="java.lang.Double" >1</attribute>
      <attribute name="ProbHomeBeforeLeaving"   class="java.lang.Double" >0</attribute>
      <attribute name="EvacLocationPreference" class="java.lang.String">,743345.54165134,5752749.80696866</attribute>204
      <attribute name="InvacLocationPreference" class="java.lang.String">,790592.002499604,5752928.59055962</attribute>204
    </attributes>
    <plan selected="yes">
      <activity type="home" x="790949.386673342" y="5753079.01930864" end_time="08:29:00" />
      <leg mode="car" />
      <activity type="work" x="770440.66549888" y="5738068.22089847" end_time="13:35:00" />
      <leg mode="car" />
      <activity type="home" x="790949.386673342" y="5753079.01930864" end_time="14:28:00" />
      <leg mode="car" />
      <activity type="beach" x="778247.725118489" y="5743352.11543371" end_time="19:02:00" />
      <leg mode="car" />
      <activity type="home" x="790949.386673342" y="5753079.01930864" />
    </plan>
  </person>

  

 <person  id= "8" >
    <attributes>
      <attribute name="BDIAgentType" class="java.lang.String" >io.github.agentsoz.ees.agents.bushfire.Resident</attribute>
      <attribute name="HasDependentsAtLocation" class="java.lang.String" >770542.808649686,5739306.44893145</attribute>
      <attribute name="InitialResponseThreshold" class="java.lang.Double" >0.2</attribute>
      <attribute name="FinalResponseThreshold"   class="java.lang.Double" >0.9</attribute>
      <attribute name="ProbHomeAfterDependents"   class="java.lang.Double" >1</attribute>
      <attribute name="ProbHomeBeforeLeaving"   class="java.lang.Double" >0</attribute>
      <attribute name="EvacLocationPreference" class="java.lang.String">,761683.361349673,5762954.93507857</attribute>230
      <attribute name="InvacLocationPreference" class="java.lang.String">c("", ""),c(763707.750309589, 763707.750309589),c(5756578.33304314, 5756578.33304314)</attribute>230
    </attributes>
    <plan selected="yes">
      <activity type="home" x="770554.346721453" y="5739299.11933109" end_time="09:25:00" />
      <leg mode="car" />
      <activity type="other" x="778707.911695857" y="5745384.49367177" end_time="11:35:00" />
      <leg mode="car" />
      <activity type="home" x="770554.346721453" y="5739299.11933109" end_time="12:51:00" />
      <leg mode="car" />
      <activity type="beach" x="778247.725118489" y="5743352.11543371" end_time="15:39:00" />
      <leg mode="car" />
      <activity type="other" x="778707.911695857" y="5745384.49367177" end_time="17:28:00" />
      <leg mode="car" />
      <activity type="home" x="770554.346721453" y="5739299.11933109" end_time="18:41:00" />
      <leg mode="car" />
      <activity type="shops" x="778641.415648874" y="5744464.24122347" end_time="20:33:00" />
      <leg mode="car" />
      <activity type="work" x="779072.591434244" y="5744566.5299771" end_time="23:59:00" />
      <leg mode="car" />
      <activity type="home" x="770554.346721453" y="5739299.11933109" />
    </plan>
  </person>

  

 <person  id= "9" >
    <attributes>
      <attribute name="BDIAgentType" class="java.lang.String" >io.github.agentsoz.ees.agents.bushfire.Resident</attribute>
      <attribute name="HasDependentsAtLocation" class="java.lang.String" ></attribute>
      <attribute name="InitialResponseThreshold" class="java.lang.Double" >0.2</attribute>
      <attribute name="FinalResponseThreshold"   class="java.lang.Double" >0.8</attribute>
      <attribute name="ProbHomeAfterDependents"   class="java.lang.Double" >0</attribute>
      <attribute name="ProbHomeBeforeLeaving"   class="java.lang.Double" >1</attribute>
      <attribute name="EvacLocationPreference" class="java.lang.String">Lorne 34,759271.09371883,5729851.2967029</attribute>264
      <attribute name="InvacLocationPreference" class="java.lang.String">,793039.244589974,5754344.1667993</attribute>264
    </attributes>
    <plan selected="yes">
      <activity type="home" x="793191.332561476" y="5754858.95984081" end_time="13:31:00" />
      <leg mode="car" />
      <activity type="shops" x="790531.243262965" y="5752048.25898957" end_time="16:59:00" />
      <leg mode="car" />
      <activity type="home" x="793191.332561476" y="5754858.95984081" />
    </plan>
  </person>

  

 <person  id= "10" >
    <attributes>
      <attribute name="BDIAgentType" class="java.lang.String" >io.github.agentsoz.ees.agents.bushfire.ResidentPartTime</attribute>
      <attribute name="HasDependentsAtLocation" class="java.lang.String" ></attribute>
      <attribute name="InitialResponseThreshold" class="java.lang.Double" >0.4</attribute>
      <attribute name="FinalResponseThreshold"   class="java.lang.Double" >0.4</attribute>
      <attribute name="ProbHomeAfterDependents"   class="java.lang.Double" >0</attribute>
      <attribute name="ProbHomeBeforeLeaving"   class="java.lang.Double" >0</attribute>
      <attribute name="EvacLocationPreference" class="java.lang.String">,725946.634709856,5753152.68589706</attribute>286
      <attribute name="InvacLocationPreference" class="java.lang.String">c("", ""),c(790024.934894441, 790024.934894441),c(5757382.29921247, 5757382.29921247)</attribute>286
    </attributes>
    <plan selected="yes">
      <activity type="home" x="790952.368694978" y="5752922.04120896" end_time="08:53:00" />
      <leg mode="car" />
      <activity type="shops" x="778190.084385339" y="5744106.22590521" end_time="11:34:00" />
      <leg mode="car" />
      <activity type="beach" x="778247.725118489" y="5743352.11543371" end_time="13:57:00" />
      <leg mode="car" />
      <activity type="shops" x="778190.084385339" y="5744106.22590521" end_time="15:20:00" />
      <leg mode="car" />
      <activity type="other" x="778707.911695857" y="5745384.49367177" end_time="16:16:00" />
      <leg mode="car" />
      <activity type="home" x="790952.368694978" y="5752922.04120896" />
    </plan>
  </person>

  

 <person  id= "11" >
    <attributes>
      <attribute name="BDIAgentType" class="java.lang.String" >io.github.agentsoz.ees.agents.bushfire.ResidentPartTime</attribute>
      <attribute name="HasDependentsAtLocation" class="java.lang.String" ></attribute>
      <attribute name="InitialResponseThreshold" class="java.lang.Double" >0.2</attribute>
      <attribute name="FinalResponseThreshold"   class="java.lang.Double" >0.2</attribute>
      <attribute name="ProbHomeAfterDependents"   class="java.lang.Double" >0</attribute>
      <attribute name="ProbHomeBeforeLeaving"   class="java.lang.Double" >0</attribute>
      <attribute name="EvacLocationPreference" class="java.lang.String">Anglesea Shops,778567.629793594,5744455.95718697</attribute>314
      <attribute name="InvacLocationPreference" class="java.lang.String">,760947.020052004,5766673.0200557</attribute>314
    </attributes>
    <plan selected="yes">
      <activity type="home" x="791976.721733365" y="5754163.89486645" end_time="09:03:00" />
      <leg mode="car" />
      <activity type="beach" x="790560.824945767" y="5751343.63519774" end_time="13:22:00" />
      <leg mode="car" />
      <activity type="other" x="789816.421674447" y="5753213.33592403" end_time="15:40:00" />
      <leg mode="car" />
      <activity type="home" x="791976.721733365" y="5754163.89486645" end_time="17:21:00" />
      <leg mode="car" />
      <activity type="beach" x="790672.762749222" y="5751729.94020213" end_time="19:33:00" />
      <leg mode="car" />
      <activity type="work" x="770414.805305086" y="5738048.92184389" end_time="22:12:00" />
      <leg mode="car" />
      <activity type="home" x="791976.721733365" y="5754163.89486645" />
    </plan>
  </person>

  

 <person  id= "12" >
    <attributes>
      <attribute name="BDIAgentType" class="java.lang.String" >io.github.agentsoz.ees.agents.bushfire.ResidentPartTime</attribute>
      <attribute name="HasDependentsAtLocation" class="java.lang.String" ></attribute>
      <attribute name="InitialResponseThreshold" class="java.lang.Double" >0.3</attribute>
      <attribute name="FinalResponseThreshold"   class="java.lang.Double" >0.4</attribute>
      <attribute name="ProbHomeAfterDependents"   class="java.lang.Double" >0</attribute>
      <attribute name="ProbHomeBeforeLeaving"   class="java.lang.Double" >1</attribute>
      <attribute name="EvacLocationPreference" class="java.lang.String">NSP,770423.143226585,5738052.43434643</attribute>344
      <attribute name="InvacLocationPreference" class="java.lang.String">Anglesea 2,778939.553269502,5745051.79671907</attribute>344
    </attributes>
    <plan selected="yes">
      <activity type="home" x="779016.031938229" y="5744949.28837239" end_time="07:04:00" />
      <leg mode="car" />
      <activity type="beach" x="790560.824945767" y="5751343.63519774" end_time="09:50:00" />
      <leg mode="car" />
      <activity type="home" x="779016.031938229" y="5744949.28837239" end_time="10:06:00" />
      <leg mode="car" />
      <activity type="work" x="789904.114853776" y="5754638.97958416" end_time="15:17:00" />
      <leg mode="car" />
      <activity type="home" x="779016.031938229" y="5744949.28837239" end_time="17:33:00" />
      <leg mode="car" />
      <activity type="shops" x="778501.03482008" y="5744485.067027" end_time="18:24:00" />
      <leg mode="car" />
      <activity type="home" x="779016.031938229" y="5744949.28837239" />
    </plan>
  </person>

  

 <person  id= "13" >
    <attributes>
      <attribute name="BDIAgentType" class="java.lang.String" >io.github.agentsoz.ees.agents.bushfire.ResidentPartTime</attribute>
      <attribute name="HasDependentsAtLocation" class="java.lang.String" ></attribute>
      <attribute name="InitialResponseThreshold" class="java.lang.Double" >0.1</attribute>
      <attribute name="FinalResponseThreshold"   class="java.lang.Double" >0.6</attribute>
      <attribute name="ProbHomeAfterDependents"   class="java.lang.Double" >0</attribute>
      <attribute name="ProbHomeBeforeLeaving"   class="java.lang.Double" >0</attribute>
      <attribute name="EvacLocationPreference" class="java.lang.String">Aireys Beach,771581.803662605,5738595.98474283</attribute>374
      <attribute name="InvacLocationPreference" class="java.lang.String">,788231.827686886,5750808.0608502</attribute>374
    </attributes>
    <plan selected="yes">
      <activity type="home" x="787864.882630657" y="5750783.64467821" end_time="05:37:00" />
      <leg mode="car" />
      <activity type="work" x="759304.083764353" y="5730247.25466383" end_time="09:36:00" />
      <leg mode="car" />
      <activity type="home" x="787864.882630657" y="5750783.64467821" end_time="21:47:00" />
      <leg mode="car" />
      <activity type="other" x="778707.911695857" y="5745384.49367177" end_time="23:56:00" />
      <leg mode="car" />
      <activity type="home" x="787864.882630657" y="5750783.64467821" />
    </plan>
  </person>

  

 <person  id= "14" >
    <attributes>
      <attribute name="BDIAgentType" class="java.lang.String" >io.github.agentsoz.ees.agents.bushfire.ResidentPartTime</attribute>
      <attribute name="HasDependentsAtLocation" class="java.lang.String" ></attribute>
      <attribute name="InitialResponseThreshold" class="java.lang.Double" >0.4</attribute>
      <attribute name="FinalResponseThreshold"   class="java.lang.Double" >0.4</attribute>
      <attribute name="ProbHomeAfterDependents"   class="java.lang.Double" >0</attribute>
      <attribute name="ProbHomeBeforeLeaving"   class="java.lang.Double" >0</attribute>
      <attribute name="EvacLocationPreference" class="java.lang.String">,768145.215009431,5778372.30932458</attribute>400
      <attribute name="InvacLocationPreference" class="java.lang.String">,788594.725322324,5751058.74232864</attribute>400
    </attributes>
    <plan selected="yes">
      <activity type="home" x="788387.140944398" y="5751226.35651356" end_time="10:38:00" />
      <leg mode="car" />
      <activity type="beach" x="790568.951774962" y="5751325.2355685" end_time="15:22:00" />
      <leg mode="car" />
      <activity type="shops" x="771123.261766525" y="5738707.26307964" end_time="17:26:00" />
      <leg mode="car" />
      <activity type="home" x="788387.140944398" y="5751226.35651356" end_time="20:25:00" />
      <leg mode="car" />
      <activity type="other" x="778707.911695857" y="5745384.49367177" end_time="22:35:00" />
      <leg mode="car" />
      <activity type="shops" x="778625.507483276" y="5744460.79582655" end_time="23:59:00" />
      <leg mode="car" />
      <activity type="home" x="788387.140944398" y="5751226.35651356" />
    </plan>
  </person>

  

 <person  id= "15" >
    <attributes>
      <attribute name="BDIAgentType" class="java.lang.String" >io.github.agentsoz.ees.agents.bushfire.ResidentPartTime</attribute>
      <attribute name="HasDependentsAtLocation" class="java.lang.String" ></attribute>
      <attribute name="InitialResponseThreshold" class="java.lang.Double" >0.3</attribute>
      <attribute name="FinalResponseThreshold"   class="java.lang.Double" >0.4</attribute>
      <attribute name="ProbHomeAfterDependents"   class="java.lang.Double" >0</attribute>
      <attribute name="ProbHomeBeforeLeaving"   class="java.lang.Double" >0</attribute>
      <attribute name="EvacLocationPreference" class="java.lang.String">Anglesea 31,778238.09613956,5743897.03583255</attribute>430
      <attribute name="InvacLocationPreference" class="java.lang.String">,792241.980747176,5754059.19193522</attribute>430
    </attributes>
    <plan selected="yes">
      <activity type="home" x="792617.41249808" y="5754000.78063616" end_time="13:49:00" />
      <leg mode="car" />
      <activity type="other" x="789816.421674447" y="5753213.33592403" end_time="15:44:00" />
      <leg mode="car" />
      <activity type="shops" x="759292.957293393" y="5730046.69255781" end_time="16:29:00" />
      <leg mode="car" />
      <activity type="home" x="792617.41249808" y="5754000.78063616" end_time="18:23:00" />
      <leg mode="car" />
      <activity type="other" x="759157.839965405" y="5730302.57810009" end_time="20:02:00" />
      <leg mode="car" />
      <activity type="home" x="792617.41249808" y="5754000.78063616" />
    </plan>
  </person>

  

 <person  id= "16" >
    <attributes>
      <attribute name="BDIAgentType" class="java.lang.String" >io.github.agentsoz.ees.agents.bushfire.ResidentPartTime</attribute>
      <attribute name="HasDependentsAtLocation" class="java.lang.String" ></attribute>
      <attribute name="InitialResponseThreshold" class="java.lang.Double" >0.4</attribute>
      <attribute name="FinalResponseThreshold"   class="java.lang.Double" >0.5</attribute>
      <attribute name="ProbHomeAfterDependents"   class="java.lang.Double" >0</attribute>
      <attribute name="ProbHomeBeforeLeaving"   class="java.lang.Double" >1</attribute>
      <attribute name="EvacLocationPreference" class="java.lang.String">,743345.54165134,5752749.80696866</attribute>458
      <attribute name="InvacLocationPreference" class="java.lang.String">Anglesea 46,778601.414982888,5744862.52348255</attribute>458
    </attributes>
    <plan selected="yes">
      <activity type="home" x="778465.142970205" y="5745189.16819324" end_time="08:09:00" />
      <leg mode="car" />
      <activity type="shops" x="790045.706790275" y="5752773.6589618" end_time="11:40:00" />
      <leg mode="car" />
      <activity type="other" x="789777.66185784" y="5753252.7750329" end_time="13:02:00" />
      <leg mode="car" />
      <activity type="shops" x="778190.084385339" y="5744106.22590521" end_time="17:39:00" />
      <leg mode="car" />
      <activity type="home" x="778465.142970205" y="5745189.16819324" end_time="21:06:00" />
      <leg mode="car" />
      <activity type="shops" x="778501.03482008" y="5744485.067027" end_time="22:29:00" />
      <leg mode="car" />
      <activity type="home" x="778465.142970205" y="5745189.16819324" />
    </plan>
  </person>

  

 <person  id= "17" >
    <attributes>
      <attribute name="BDIAgentType" class="java.lang.String" >io.github.agentsoz.ees.agents.bushfire.ResidentPartTime</attribute>
      <attribute name="HasDependentsAtLocation" class="java.lang.String" ></attribute>
      <attribute name="InitialResponseThreshold" class="java.lang.Double" >0.5</attribute>
      <attribute name="FinalResponseThreshold"   class="java.lang.Double" >0.6</attribute>
      <attribute name="ProbHomeAfterDependents"   class="java.lang.Double" >0</attribute>
      <attribute name="ProbHomeBeforeLeaving"   class="java.lang.Double" >0</attribute>
      <attribute name="EvacLocationPreference" class="java.lang.String">,725946.634709856,5753152.68589706</attribute>488
      <attribute name="InvacLocationPreference" class="java.lang.String">Anglesea 52,776562.209130162,5743714.49959896</attribute>488
    </attributes>
    <plan selected="yes">
      <activity type="home" x="776671.723534152" y="5743413.80470562" end_time="10:58:00" />
      <leg mode="car" />
      <activity type="beach" x="778614.794764519" y="5743470.87325903" end_time="12:44:00" />
      <leg mode="car" />
      <activity type="home" x="776671.723534152" y="5743413.80470562" end_time="14:20:00" />
      <leg mode="car" />
      <activity type="shops" x="778175.520327603" y="5744153.76169213" end_time="16:51:00" />
      <leg mode="car" />
      <activity type="home" x="776671.723534152" y="5743413.80470562" end_time="18:06:00" />
      <leg mode="car" />
      <activity type="shops" x="778634.439615756" y="5744472.84442649" end_time="21:20:00" />
      <leg mode="car" />
      <activity type="home" x="776671.723534152" y="5743413.80470562" />
    </plan>
  </person>

  

 <person  id= "18" >
    <attributes>