<?xml version="1.0" ?>
  <!DOCTYPE plans SYSTEM "http://www.matsim.org/files/dtd/plans_v4.dtd">
  <plans>
  <!-- ====================================================================== -->
  <person id= "0" >
    <attributes>
      <attribute name="BDIAgentType" class="java.lang.String" >io.github.agentsoz.ees.agents.Resident</attribute>
    </attributes>
    <plan selected="yes">
      <act type="home" x="791266.77389" y="5753952.7238" end_time="09:03:00" />
      <leg mode="car" />
      <act type="other" x="790829.71368" y="5755284.52525" end_time="11:42:00" />
      <leg mode="car" />
      <act type="shops" x="790505.64718" y="5752116.69154" end_time="12:57:00" />
      <leg mode="car" />
      <act type="beach" x="790861.74053" y="5752552.89152" end_time="15:40:00" />
      <leg mode="car" />
      <act type="shops" x="789974.17245" y="5752810.54643" end_time="19:58:00" />
      <leg mode="car" />
      <act type="home" x="791266.77389" y="5753952.7238" />
    </plan>
  </person>
  
  <person id= "1" >
    <attributes>
      <attribute name="BDIAgentType" class="java.lang.String" >io.github.agentsoz.ees.agents.Resident</attribute>
    </attributes>
    <plan selected="yes">
      <act type="home" x="770407.17022" y="5738257.63025" end_time="09:22:00" />
      <leg mode="car" />
      <act type="other" x="771374.44073" y="5738835.66619" end_time="10:07:00" />
      <leg mode="car" />
      <act type="home" x="770407.17022" y="5738257.63025" end_time="12:05:00" />
      <leg mode="car" />
      <act type="work" x="770405.93026" y="5737998.74274" end_time="16:19:00" />
      <leg mode="car" />
      <act type="shops" x="770351.40111" y="5738001.92605" end_time="19:36:00" />
      <leg mode="car" />
      <act type="other" x="778779.70651" y="5745319.61958" end_time="21:43:00" />
      <leg mode="car" />
      <act type="home" x="770407.17022" y="5738257.63025" />
    </plan>
  </person>
  
  <person id= "2" >
    <attributes>
      <attribute name="BDIAgentType" class="java.lang.String" >io.github.agentsoz.ees.agents.Resident</attribute>
    </attributes>
    <plan selected="yes">
      <act type="home" x="785214.61151" y="5752348.59514" end_time="08:47:00" />
      <leg mode="car" />
      <act type="other" x="771374.44073" y="5738835.66619" end_time="11:48:00" />
      <leg mode="car" />
      <act type="shops" x="790505.64718" y="5752116.69154" end_time="13:39:00" />
      <leg mode="car" />
      <act type="work" x="790484.60538" y="5754857.18225" end_time="16:39:00" />
      <leg mode="car" />
      <act type="beach" x="786985.47082" y="5748372.83646" end_time="18:43:00" />
      <leg mode="car" />
      <act type="home" x="785214.61151" y="5752348.59514" />
    </plan>
  </person>
  
  <person id= "3" >
    <attributes>
      <attribute name="BDIAgentType" class="java.lang.String" >io.github.agentsoz.ees.agents.Resident</attribute>
    </attributes>
    <plan selected="yes">
      <act type="home" x="760760.34643" y="5732480.45445" end_time="09:34:00" />
      <leg mode="car" />
      <act type="work" x="759163.59908" y="5730338.60707" end_time="13:26:00" />
      <leg mode="car" />
      <act type="beach" x="759551.54671" y="5730602.07326" end_time="15:05:00" />
      <leg mode="car" />
      <act type="shops" x="759317.42351" y="5729964.86105" end_time="17:44:00" />
      <leg mode="car" />
      <act type="home" x="760760.34643" y="5732480.45445" />
    </plan>
  </person>
  
  <person id= "4" >
    <attributes>
      <attribute name="BDIAgentType" class="java.lang.String" >io.github.agentsoz.ees.agents.Resident</attribute>
    </attributes>
    <plan selected="yes">
      <act type="home" x="760760.02254" y="5758146.24527" end_time="00:01:00" />
      <leg mode="car" />
      <act type="other" x="777888.65052" y="5762548.96247" end_time="02:55:00" />
      <leg mode="car" />
      <act type="home" x="760760.02254" y="5758146.24527" end_time="07:37:00" />
      <leg mode="car" />
      <act type="shops" x="761647.31617" y="5762952.48569" end_time="08:11:00" />
      <leg mode="car" />
      <act type="beach" x="800742.88293" y="5757428.94421" end_time="10:34:00" />
      <leg mode="car" />
      <act type="shops" x="761647.31617" y="5762952.48569" end_time="13:38:00" />
      <leg mode="car" />
      <act type="work" x="778649.17232" y="5743860.56825" end_time="17:02:00" />
      <leg mode="car" />
      <act type="home" x="760760.02254" y="5758146.24527" end_time="21:54:00" />
      <leg mode="car" />
      <act type="work" x="761289.50657" y="5762130.29619" end_time="23:59:00" />
      <leg mode="car" />
      <act type="home" x="760760.02254" y="5758146.24527" />
    </plan>
  </person>
  
  <person id= "5" >
    <attributes>
      <attribute name="BDIAgentType" class="java.lang.String" >io.github.agentsoz.ees.agents.Resident</attribute>
    </attributes>
    <plan selected="yes">
      <act type="home" x="765787.20785" y="5737484.41921" end_time="10:55:00" />
      <leg mode="car" />
      <act type="beach" x="778237.06886" y="5743964.79164" end_time="13:56:00" />
      <leg mode="car" />
      <act type="work" x="759175.87554" y="5731742.96741" end_time="16:51:00" />
      <leg mode="car" />
      <act type="shops" x="770351.40111" y="5738001.92605" end_time="19:54:00" />
      <leg mode="car" />
      <act type="home" x="765787.20785" y="5737484.41921" end_time="21:37:00" />
      <leg mode="car" />
      <act type="shops" x="770351.40111" y="5738001.92605" end_time="23:30:00" />
      <leg mode="car" />
      <act type="home" x="765787.20785" y="5737484.41921" />
    </plan>
  </person>
  
  <person id= "6" >
    <attributes>
      <attribute name="BDIAgentType" class="java.lang.String" >io.github.agentsoz.ees.agents.Resident</attribute>
    </attributes>
    <plan selected="yes">
      <act type="home" x="778887.78374" y="5744453.09544" end_time="05:47:00" />
      <leg mode="car" />
      <act type="work" x="779012.88562" y="5744520.34118" end_time="08:15:00" />
      <leg mode="car" />
      <act type="shops" x="778482.57737" y="5744462.75843" end_time="11:27:00" />
      <leg mode="car" />
      <act type="home" x="778887.78374" y="5744453.09544" end_time="12:21:00" />
      <leg mode="car" />
      <act type="work" x="779012.88562" y="5744520.34118" end_time="17:22:00" />
      <leg mode="car" />
      <act type="shops" x="778433.82508" y="5744429.17115" end_time="20:20:00" />
      <leg mode="car" />
      <act type="home" x="778887.78374" y="5744453.09544" />
    </plan>
  </person>
  
  <person id= "7" >
    <attributes>
      <attribute name="BDIAgentType" class="java.lang.String" >io.github.agentsoz.ees.agents.Resident</attribute>
    </attributes>
    <plan selected="yes">
      <act type="home" x="778824.77616" y="5744728.18944" end_time="08:08:00" />
      <leg mode="car" />
      <act type="work" x="778210.63486" y="5744138.97464" end_time="12:09:00" />
      <leg mode="car" />
      <act type="beach" x="776580.38162" y="5741915.32936" end_time="15:29:00" />
      <leg mode="car" />
      <act type="shops" x="778482.57737" y="5744462.75843" end_time="16:54:00" />
      <leg mode="car" />
      <act type="beach" x="778237.06886" y="5743964.79164" end_time="19:03:00" />
      <leg mode="car" />
      <act type="home" x="778824.77616" y="5744728.18944" />
    </plan>
  </person>
  
  <person id= "8" >
    <attributes>
      <attribute name="BDIAgentType" class="java.lang.String" >io.github.agentsoz.ees.agents.Resident</attribute>
    </attributes>
    <plan selected="yes">
      <act type="home" x="769175.20787" y="5738330.45628" end_time="09:49:00" />
      <leg mode="car" />
      <act type="shops" x="770351.40111" y="5738001.92605" end_time="12:07:00" />
      <leg mode="car" />
      <act type="work" x="770405.93026" y="5737998.74274" end_time="17:00:00" />
      <leg mode="car" />
      <act type="home" x="769175.20787" y="5738330.45628" end_time="18:35:00" />
      <leg mode="car" />
      <act type="shops" x="770351.40111" y="5738001.92605" end_time="21:03:00" />
      <leg mode="car" />
      <act type="home" x="769175.20787" y="5738330.45628" />
    </plan>
  </person>
  
  <person id= "9" >
    <attributes>
      <attribute name="BDIAgentType" class="java.lang.String" >io.github.agentsoz.ees.agents.Resident</attribute>
    </attributes>
    <plan selected="yes">
      <act type="home" x="780753.25428" y="5767013.16781" end_time="13:19:00" />
      <leg mode="car" />
      <act type="shops" x="777902.25512" y="5762634.6724" end_time="14:55:00" />
      <leg mode="car" />
      <act type="beach" x="790599.42678" y="5751665.27" end_time="17:56:00" />
      <leg mode="car" />
      <act type="work" x="792919.68545" y="5754526.38383" end_time="21:23:00" />
      <leg mode="car" />
      <act type="home" x="780753.25428" y="5767013.16781" />
    </plan>
  </person>
  
  <person id= "10" >
    <attributes>
      <attribute name="BDIAgentType" class="java.lang.String" >io.github.agentsoz.ees.agents.Resident</attribute>
    </attributes>
    <plan selected="yes">
      <act type="home" x="759529.05903" y="5729050.10647" end_time="11:36:00" />
      <leg mode="car" />
      <act type="work" x="759681.61587" y="5729403.88001" end_time="18:31:00" />
      <leg mode="car" />
      <act type="home" x="759529.05903" y="5729050.10647" />
    </plan>
  </person>
  
  <person id= "11" >
    <attributes>
      <attribute name="BDIAgentType" class="java.lang.String" >io.github.agentsoz.ees.agents.Resident</attribute>
    </attributes>
    <plan selected="yes">
      <act type="home" x="777034.92958" y="5743303.37519" end_time="11:41:00" />
      <leg mode="car" />
      <act type="work" x="777704.05806" y="5743980.73808" end_time="14:55:00" />
      <leg mode="car" />
      <act type="beach" x="777498.11629" y="5741920.33946" end_time="16:38:00" />
      <leg mode="car" />
      <act type="work" x="778791.70915" y="5745372.55639" end_time="21:45:00" />
      <leg mode="car" />
      <act type="home" x="777034.92958" y="5743303.37519" end_time="23:17:00" />
      <leg mode="car" />
      <act type="other" x="778154.87981" y="5743919.35957" end_time="23:59:00" />
      <leg mode="car" />
      <act type="home" x="777034.92958" y="5743303.37519" />
    </plan>
  </person>
  
  <person id= "12" >
    <attributes>
      <attribute name="BDIAgentType" class="java.lang.String" >io.github.agentsoz.ees.agents.Resident</attribute>
    </attributes>
    <plan selected="yes">
      <act type="home" x="778465.75666" y="5779403.50962" end_time="08:20:00" />
      <leg mode="car" />
      <act type="beach" x="778237.06886" y="5743964.79164" end_time="11:49:00" />
      <leg mode="car" />
      <act type="work" x="759175.87554" y="5731742.96741" end_time="14:10:00" />
      <leg mode="car" />
      <act type="shops" x="789974.17245" y="5752810.54643" end_time="18:17:00" />
      <leg mode="car" />
      <act type="home" x="778465.75666" y="5779403.50962" />
    </plan>
  </person>
  
  <person id= "13" >
    <attributes>
      <attribute name="BDIAgentType" class="java.lang.String" >io.github.agentsoz.ees.agents.Resident</attribute>
    </attributes>
    <plan selected="yes">
      <act type="home" x="760236.50965" y="5767663.33029" end_time="09:11:00" />
      <leg mode="car" />
      <act type="work" x="761289.50657" y="5762130.29619" end_time="13:31:00" />
      <leg mode="car" />
      <act type="home" x="760236.50965" y="5767663.33029" end_time="15:19:00" />
      <leg mode="car" />
      <act type="beach" x="786255.54497" y="5747965.81546" end_time="17:04:00" />
      <leg mode="car" />
      <act type="home" x="760236.50965" y="5767663.33029" end_time="19:22:00" />
      <leg mode="car" />
      <act type="shops" x="761647.31617" y="5762952.48569" end_time="21:59:00" />
      <leg mode="car" />
      <act type="home" x="760236.50965" y="5767663.33029" />
    </plan>
  </person>
  
  <person id= "14" >
    <attributes>
      <attribute name="BDIAgentType" class="java.lang.String" >io.github.agentsoz.ees.agents.Resident</attribute>
    </attributes>
    <plan selected="yes">
      <act type="home" x="778120.34867" y="5743785.33014" end_time="06:56:00" />
      <leg mode="car" />
      <act type="work" x="778463.2759" y="5744455.4553" end_time="10:04:00" />
      <leg mode="car" />
      <act type="shops" x="778279.66613" y="5743500.15352" end_time="13:20:00" />
      <leg mode="car" />
      <act type="work" x="778463.2759" y="5744455.4553" end_time="20:28:00" />
      <leg mode="car" />
      <act type="home" x="778120.34867" y="5743785.33014" />
    </plan>
  </person>
  
  <person id= "15" >
    <attributes>
      <attribute name="BDIAgentType" class="java.lang.String" >io.github.agentsoz.ees.agents.Resident</attribute>
    </attributes>
    <plan selected="yes">
      <act type="home" x="777500.53929" y="5742738.52265" end_time="09:49:00" />
      <leg mode="car" />
      <act type="work" x="777704.05806" y="5743980.73808" end_time="12:40:00" />
      <leg mode="car" />
      <act type="beach" x="777498.11629" y="5741920.33946" end_time="16:03:00" />
      <leg mode="car" />
      <act type="home" x="777500.53929" y="5742738.52265" end_time="22:27:00" />
      <leg mode="car" />
      <act type="other" x="778154.87981" y="5743919.35957" end_time="23:59:00" />
      <leg mode="car" />
      <act type="home" x="777500.53929" y="5742738.52265" />
    </plan>
  </person>
  
  <person id= "16" >
    <attributes>
      <attribute name="BDIAgentType" class="java.lang.String" >io.github.agentsoz.ees.agents.Resident</attribute>
    </attributes>
    <plan selected="yes">
      <act type="home" x="771442.61994" y="5738965.08645" end_time="10:48:00" />
      <leg mode="car" />
      <act type="work" x="771120.82582" y="5738818.00056" end_time="15:17:00" />
      <leg mode="car" />
      <act type="beach" x="777498.11629" y="5741920.33946" end_time="16:05:00" />
      <leg mode="car" />
      <act type="home" x="771442.61994" y="5738965.08645" />
    </plan>
  </person>
  
  <person id= "17" >
    <attributes>
      <attribute name="BDIAgentType" class="java.lang.String" >io.github.agentsoz.ees.agents.Resident</attribute>
    </attributes>
    <plan selected="yes">
      <act type="home" x="779214.53802" y="5765333.38073" end_time="09:33:00" />
      <leg mode="car" />
      <act type="work" x="792919.68545" y="5754526.38383" end_time="13:01:00" />
      <leg mode="car" />
      <act type="shops" x="778433.82508" y="5744429.17115" end_time="15:25:00" />
      <leg mode="car" />
      <act type="beach" x="790861.74053" y="5752552.89152" end_time="18:01:00" />
      <leg mode="car" />
      <act type="home" x="779214.53802" y="5765333.38073" />
    </plan>
  </person>
  
  <person id= "18" >
    <attributes>
      <attribute name="BDIAgentType" class="java.lang.String" >io.github.agentsoz.ees.agents.Resident</attribute>
    </attributes>
    <plan selected="yes">
      <act type="home" x="788233.29916" y="5750636.77437" end_time="09:06:00" />
      <leg mode="car" />
      <act type="work" x="789848.05453" y="5752795.44381" end_time="13:26:00" />
      <leg mode="car" />
      <act type="home" x="788233.29916" y="5750636.77437" end_time="15:41:00" />
      <leg mode="car" />
      <act type="beach" x="788528.10978" y="5750214.98843" end_time="16:41:00" />
      <leg mode="car" />
      <act type="work" x="789434.99816" y="5751266.44194" end_time="21:49:00" />
      <leg mode="car" />
      <act type="home" x="788233.29916" y="5750636.77437" />
    </plan>
  </person>
  
  <person id= "19" >
    <attributes>
      <attribute name="BDIAgentType" class="java.lang.String" >io.github.agentsoz.ees.agents.Resident</attribute>
    </attributes>
    <plan selected="yes">
      <act type="home" x="759036.64729" y="5729776.26625" end_time="09:44:00" />
      <leg mode="car" />
      <act type="work" x="759223.27599" y="5730566.26203" end_time="16:01:00" />
      <leg mode="car" />
      <act type="other" x="759210.79384" y="5730135.73036" end_time="18:23:00" />
      <leg mode="car" />
      <act type="home" x="759036.64729" y="5729776.26625" end_time="20:44:00" />
      <leg mode="car" />
      <act type="work" x="759353.31074" y="5729787.17382" end_time="23:59:00" />
      <leg mode="car" />
      <act type="home" x="759036.64729" y="5729776.26625" />
    </plan>
  </person>
  
  <person id= "20" >
    <attributes>
      <attribute name="BDIAgentType" class="java.lang.String" >io.github.agentsoz.ees.agents.Resident</attribute>
    </attributes>
    <plan selected="yes">
      <act type="home" x="779060.59145" y="5744152.03038" end_time="00:01:00" />
      <leg mode="car" />
      <act type="work" x="778791.70915" y="5745372.55639" end_time="05:55:00" />
      <leg mode="car" />
      <act type="home" x="779060.59145" y="5744152.03038" end_time="07:29:00" />
      <leg mode="car" />
      <act type="shops" x="778482.57737" y="5744462.75843" end_time="08:27:00" />
      <leg mode="car" />
      <act type="home" x="779060.59145" y="5744152.03038" end_time="11:38:00" />
      <leg mode="car" />
      <act type="work" x="779012.88562" y="5744520.34118" end_time="19:40:00" />
      <leg mode="car" />
      <act type="home" x="779060.59145" y="5744152.03038" />
    </plan>
  </person>
  
  <person id= "21" >
    <attributes>
      <attribute name="BDIAgentType" class="java.lang.String" >io.github.agentsoz.ees.agents.Resident</attribute>
    </attributes>
    <plan selected="yes">
      <act type="home" x="759555.23105" y="5729580.74669" end_time="05:45:00" />
      <leg mode="car" />
      <act type="other" x="759210.79384" y="5730135.73036" end_time="07:32:00" />
      <leg mode="car" />
      <act type="home" x="759555.23105" y="5729580.74669" end_time="10:52:00" />
      <leg mode="car" />
      <act type="shops" x="759294.96025" y="5730628.35413" end_time="12:32:00" />
      <leg mode="car" />
      <act type="work" x="759374.79717" y="5729757.06377" end_time="16:56:00" />
      <leg mode="car" />
      <act type="beach" x="759551.54671" y="5730602.07326" end_time="18:01:00" />
      <leg mode="car" />
      <act type="home" x="759555.23105" y="5729580.74669" />
    </plan>
  </person>
  
  <person id= "22" >
    <attributes>
      <attribute name="BDIAgentType" class="java.lang.String" >io.github.agentsoz.ees.agents.Resident</attribute>
    </attributes>
    <plan selected="yes">
      <act type="home" x="780753.25428" y="5767013.16781" end_time="08:44:00" />
      <leg mode="car" />
      <act type="beach" x="759551.54671" y="5730602.07326" end_time="13:34:00" />
      <leg mode="car" />
      <act type="shops" x="777902.25512" y="5762634.6724" end_time="15:33:00" />
      <leg mode="car" />
      <act type="beach" x="800742.88293" y="5757428.94421" end_time="16:40:00" />
      <leg mode="car" />
      <act type="shops" x="790505.64718" y="5752116.69154" end_time="19:44:00" />
      <leg mode="car" />
      <act type="home" x="780753.25428" y="5767013.16781" />
    </plan>
  </person>
  
  <person id= "23" >
    <attributes>
      <attribute name="BDIAgentType" class="java.lang.String" >io.github.agentsoz.ees.agents.Resident</attribute>
    </attributes>
    <plan selected="yes">
      <act type="home" x="770811.32212" y="5738891.55042" end_time="00:01:00" />
      <leg mode="car" />
      <act type="work" x="770968.05532" y="5738364.60103" end_time="04:39:00" />
      <leg mode="car" />
      <act type="home" x="770811.32212" y="5738891.55042" end_time="08:03:00" />
      <leg mode="car" />
      <act type="shops" x="770351.40111" y="5738001.92605" end_time="16:33:00" />
      <leg mode="car" />
      <act type="beach" x="759551.54671" y="5730602.07326" end_time="18:04:00" />
      <leg mode="car" />
      <act type="home" x="770811.32212" y="5738891.55042" />
    </plan>
  </person>
  
  <person id= "24" >
    <attributes>
      <attribute name="BDIAgentType" class="java.lang.String" >io.github.agentsoz.ees.agents.Resident</attribute>
    </attributes>
    <plan selected="yes">
      <act type="home" x="783225.10193" y="5760256.97091" end_time="11:49:00" />
      <leg mode="car" />
      <act type="shops" x="777902.25512" y="5762634.6724" end_time="13:54:00" />
      <leg mode="car" />
      <act type="work" x="789848.05453" y="5752795.44381" end_time="16:25:00" />
      <leg mode="car" />
      <act type="home" x="783225.10193" y="5760256.97091" end_time="19:42:00" />
      <leg mode="car" />
      <act type="shops" x="789902.15203" y="5752276.48654" end_time="20:07:00" />
      <leg mode="car" />
      <act type="home" x="783225.10193" y="5760256.97091" />
    </plan>
  </person>
  
  <person id= "25" >
    <attributes>
      <attribute name="BDIAgentType" class="java.lang.String" >io.github.agentsoz.ees.agents.Resident</attribute>
    </attributes>
    <plan selected="yes">
      <act type="home" x="765787.20785" y="5737484.41921" end_time="09:59:00" />
      <leg mode="car" />
      <act type="work" x="770968.05532" y="5738364.60103" end_time="17:06:00" />
      <leg mode="car" />
      <act type="shops" x="778482.57737" y="5744462.75843" end_time="21:52:00" />
      <leg mode="car" />
      <act type="home" x="765787.20785" y="5737484.41921" />
    </plan>
  </person>
  
  <person id= "26" >
    <attributes>
      <attribute name="BDIAgentType" class="java.lang.String" >io.github.agentsoz.ees.agents.Resident</attribute>
    </attributes>
    <plan selected="yes">
      <act type="home" x="783473.54056" y="5752883.62806" end_time="02:25:00" />
      <leg mode="car" />
      <act type="other" x="792803.19879" y="5769441.31381" end_time="05:50:00" />
      <leg mode="car" />
      <act type="home" x="783473.54056" y="5752883.62806" end_time="08:28:00" />
      <leg mode="car" />
      <act type="other" x="778546.67853" y="5744446.73313" end_time="11:34:00" />
      <leg mode="car" />
      <act type="home" x="783473.54056" y="5752883.62806" end_time="13:22:00" />
      <leg mode="car" />
      <act type="work" x="778210.63486" y="5744138.97464" end_time="16:21:00" />
      <leg mode="car" />
      <act type="home" x="783473.54056" y="5752883.62806" />
    </plan>
  </person>
  
  <person id= "27" >
    <attributes>
      <attribute name="BDIAgentType" class="java.lang.String" >io.github.agentsoz.ees.agents.Resident</attribute>
    </attributes>
    <plan selected="yes">
      <act type="home" x="776955.86985" y="5742052.03546" end_time="13:57:00" />
      <leg mode="car" />
      <act type="beach" x="777498.11629" y="5741920.33946" end_time="14:51:00" />
      <leg mode="car" />
      <act type="shops" x="778279.66613" y="5743500.15352" end_time="16:23:00" />
      <leg mode="car" />
      <act type="home" x="776955.86985" y="5742052.03546" end_time="19:45:00" />
      <leg mode="car" />
      <act type="shops" x="778482.57737" y="5744462.75843" end_time="21:04:00" />
      <leg mode="car" />
      <act type="home" x="776955.86985" y="5742052.03546" />
    </plan>
  </person>
  
  <person id= "28" >
    <attributes>
      <attribute name="BDIAgentType" class="java.lang.String" >io.github.agentsoz.ees.agents.Resident</attribute>
    </attributes>
    <plan selected="yes">
      <act type="home" x="760393.68468" y="5732566.2735" end_time="09:59:00" />
      <leg mode="car" />
      <act type="other" x="759210.79384" y="5730135.73036" end_time="11:37:00" />
      <leg mode="car" />
      <act type="work" x="759175.87554" y="5731742.96741" end_time="15:22:00" />
      <leg mode="car" />
      <act type="other" x="759074.12513" y="5730215.34091" end_time="16:03:00" />
      <leg mode="car" />
      <act type="work" x="760128.0835" y="5729217.22829" end_time="21:28:00" />
      <leg mode="car" />
      <act type="home" x="760393.68468" y="5732566.2735" />
    </plan>
  </person>
  
  <person id= "29" >
    <attributes>
      <attribute name="BDIAgentType" class="java.lang.String" >io.github.agentsoz.ees.agents.Resident</attribute>
    </attributes>
    <plan selected="yes">
      <act type="home" x="777908.65123" y="5743500.16013" end_time="10:48:00" />
      <leg mode="car" />
      <act type="work" x="777196.72455" y="5744398.58775" end_time="14:29:00" />
      <leg mode="car" />
      <act type="beach" x="777498.11629" y="5741920.33946" end_time="16:15:00" />
      <leg mode="car" />
      <act type="home" x="777908.65123" y="5743500.16013" />
    </plan>
  </person>
  
  <person id= "30" >
    <attributes>
      <attribute name="BDIAgentType" class="java.lang.String" >io.github.agentsoz.ees.agents.Resident</attribute>
    </attributes>
    <plan selected="yes">
      <act type="home" x="759210.01775" y="5730042.06433" end_time="06:55:00" />
      <leg mode="car" />
      <act type="shops" x="759317.42351" y="5729964.86105" end_time="11:30:00" />
      <leg mode="car" />
      <act type="home" x="759210.01775" y="5730042.06433" end_time="13:48:00" />
      <leg mode="car" />
      <act type="beach" x="759326.8826" y="5729839.13291" end_time="15:16:00" />
      <leg mode="car" />
      <act type="shops" x="759317.42351" y="5729964.86105" end_time="17:18:00" />
      <leg mode="car" />
      <act type="home" x="759210.01775" y="5730042.06433" />
    </plan>
  </person>
  
  <person id= "31" >
    <attributes>
      <attribute name="BDIAgentType" class="java.lang.String" >io.github.agentsoz.ees.agents.Resident</attribute>
    </attributes>
    <plan selected="yes">
      <act type="home" x="777837.33273" y="5743458.02044" end_time="04:50:00" />
      <leg mode="car" />
      <act type="work" x="777704.05806" y="5743980.73808" end_time="08:01:00" />
      <leg mode="car" />
      <act type="home" x="777837.33273" y="5743458.02044" end_time="10:15:00" />
      <leg mode="car" />
      <act type="work" x="778649.17232" y="5743860.56825" end_time="15:38:00" />
      <leg mode="car" />
      <act type="shops" x="778279.66613" y="5743500.15352" end_time="16:03:00" />
      <leg mode="car" />
      <act type="home" x="777837.33273" y="5743458.02044" />
    </plan>
  </person>
  
  <person id= "32" >
    <attributes>
      <attribute name="BDIAgentType" class="java.lang.String" >io.github.agentsoz.ees.agents.Resident</attribute>
    </attributes>
    <plan selected="yes">
      <act type="home" x="793533.93691" y="5770266.87819" end_time="05:51:00" />
      <leg mode="car" />
      <act type="work" x="793249.38427" y="5770567.6814" end_time="08:43:00" />
      <leg mode="car" />
      <act type="shops" x="792871.83966" y="5770473.28821" end_time="11:55:00" />
      <leg mode="car" />
      <act type="home" x="793533.93691" y="5770266.87819" end_time="14:31:00" />
      <leg mode="car" />
      <act type="shops" x="792871.83966" y="5770473.28821" end_time="17:10:00" />
      <leg mode="car" />
      <act type="home" x="793533.93691" y="5770266.87819" />
    </plan>
  </person>
  
  <person id= "33" >
    <attributes>
      <attribute name="BDIAgentType" class="java.lang.String" >io.github.agentsoz.ees.agents.Resident</attribute>
    </attributes>
    <plan selected="yes">
      <act type="home" x="777433.44518" y="5742989.29069" end_time="08:44:00" />
      <leg mode="car" />
      <act type="work" x="778463.2759" y="5744455.4553" end_time="12:02:00" />
      <leg mode="car" />
      <act type="shops" x="778279.66613" y="5743500.15352" end_time="14:46:00" />
      <leg mode="car" />
      <act type="home" x="777433.44518" y="5742989.29069" end_time="17:50:00" />
      <leg mode="car" />
      <act type="other" x="778546.67853" y="5744446.73313" end_time="21:10:00" />
      <leg mode="car" />
      <act type="home" x="777433.44518" y="5742989.29069" />
    </plan>
  </person>
  
  <person id= "34" >
    <attributes>
      <attribute name="BDIAgentType" class="java.lang.String" >io.github.agentsoz.ees.agents.Resident</attribute>
    </attributes>
    <plan selected="yes">
      <act type="home" x="778824.77616" y="5744728.18944" end_time="13:05:00" />
      <leg mode="car" />
      <act type="shops" x="778482.57737" y="5744462.75843" end_time="17:46:00" />
      <leg mode="car" />
      <act type="work" x="778210.63486" y="5744138.97464" end_time="20:27:00" />
      <leg mode="car" />
      <act type="shops" x="778482.57737" y="5744462.75843" end_time="22:37:00" />
      <leg mode="car" />
      <act type="home" x="778824.77616" y="5744728.18944" />
    </plan>
  </person>
  
  <person id= "35" >
    <attributes>
      <attribute name="BDIAgentType" class="java.lang.String" >io.github.agentsoz.ees.agents.Resident</attribute>
    </attributes>
    <plan selected="yes">
      <act type="home" x="759555.23105" y="5729580.74669" end_time="08:57:00" />
      <leg mode="car" />
      <act type="work" x="759374.79717" y="5729757.06377" end_time="21:00:00" />
      <leg mode="car" />
      <act type="home" x="759555.23105" y="5729580.74669" />
    </plan>
  </person>
  
  <person id= "36" >
    <attributes>
      <attribute name="BDIAgentType" class="java.lang.String" >io.github.agentsoz.ees.agents.Resident</attribute>
    </attributes>
    <plan selected="yes">
      <act type="home" x="770678.09655" y="5739477.39483" end_time="00:01:00" />
      <leg mode="car" />
      <act type="other" x="790829.71368" y="5755284.52525" end_time="03:02:00" />
      <leg mode="car" />
      <act type="home" x="770678.09655" y="5739477.39483" end_time="09:48:00" />
      <leg mode="car" />
      <act type="work" x="771120.82582" y="5738818.00056" end_time="21:58:00" />
      <leg mode="car" />
      <act type="home" x="770678.09655" y="5739477.39483" />
    </plan>
  </person>
  
  <person id= "37" >
    <attributes>
      <attribute name="BDIAgentType" class="java.lang.String" >io.github.agentsoz.ees.agents.Resident</attribute>
    </attributes>
    <plan selected="yes">
      <act type="home" x="777618.94344" y="5762473.64908" end_time="08:09:00" />
      <leg mode="car" />
      <act type="work" x="779513.96035" y="5746544.88888" end_time="12:58:00" />